sol/case1354pegase.m
function mpc = case1354pegase
%CASE1354PEGASE

%% MATPOWER Case Format : Version 2
mpc.version = '2';

%%-----  Power Flow Data  -----%%
%% system MVA base
mpc.baseMVA = 100;

%% bus data
%	bus_i	type	Pd	Qd	Gs	Bs	area	Vm	Va	baseKV	zone	Vmax	Vmin	lam_P	lam_Q	mu_Vmax	mu_Vmin
mpc.bus = [
	3	1	151	48.8	0	4.69	0	1.07518543	-8.39138157	220	5	1.1	0.9	1.0232	0.0045	0.0000	0.0000;
	4	1	171.41	23.4	0	2.1	0	1.06218343	-5.59589158	220	5	1.1	0.9	1.0155	0.0030	0.0000	0.0000;
	10	1	134	24.7	0	12.44	0	1.06448172	-17.4553	220	5	1.1	0.9	1.0435	-0.0079	0.0000	0.0000;
	21	1	161.2	39.3	0	30.71	0	1.05995644	-16.0756769	220	5	1.1	0.9	1.0400	-0.0020	0.0000	0.0000;
	22	1	0	-0	0	0.85	0	1.07821159	-11.1011913	220	5	1.1	0.9	1.0206	0.0037	0.0000	0.0000;
	26	1	167.3	54.8	0	110.54	0	1.07076892	-1.22391472	380	5	1.1	0.9	1.0015	0.0002	0.0000	0.0000;
	29	1	152.9	49.4	0	27.65	0	1.04995835	-3.0063972	380	5	1.1	0.9	1.0076	0.0007	0.0000	0.0000;
	44	1	-0	0	0	7.27	0	1.07134506	-15.4794187	220	5	1.1	0.9	1.0327	-0.0082	0.0000	0.0000;
	53	1	48.65	16.1	0	7.14	0	1.09042643	-2.01095586	220	5	1.1	0.9	1.0011	0.0001	0.0000	0.0000;
	58	1	0	0	0	2.31	0	1.04515815	-1.17541299	380	5	1.1	0.9	1.0000	-0.0003	0.0000	0.0000;
	59	1	119.2	20.7	0	3.31	0	1.08401308	-14.6407632	220	5	1.1	0.9	1.0375	-0.0046	0.0000	0.0000;
	90	1	363.25	115.39	0	3.95	0	1.0820971	-11.0271673	220	5	1.1	0.9	1.0266	0.0027	0.0000	0.0000;
	96	1	-8.4	28.66	0	3.49	0	1.09578546	-1.98769384	220	5	1.1	0.9	1.0058	0.0013	0.0000	0.0000;
	113	1	-0	-0	0	6.532711	0	1.06618738	-4.0853404	380	5	1.1	0.9	1.0098	0.0011	0.0000	0.0000;
	115	1	0	-0	0	4.21	0	1.07004351	-12.6057361	220	5	1.1	0.9	1.0254	0.0020	0.0000	0.0000;
	118	1	704.53	-35.33	0	13.102834	0	1.0742205	-4.12219762	380	5	1.1	0.9	1.0070	-0.0002	0.0000	0.0000;
	124	2	0	0	0	0	0	1.07560977	2.13987799	220	5	1.1	0.9	0.9975	-0.0000	0.0000	0.0000;
	128	1	23.73	12.7	0	0.52	0	1.05041004	-12.6894733	220	5	1.1	0.9	1.0355	0.0068	0.0000	0.0000;
	145	1	38.34	5.6	0	7.64	0	1.09099381	-4.22164687	220	5	1.1	0.9	1.0025	-0.0000	0.0000	0.0000;
	148	1	32.34	12	0	6.1	0	1.07304732	-4.3948507	220	5	1.1	0.9	1.0072	0.0012	0.0000	0.0000;
	150	2	0	0	0	0	0	1.08400641	-3.14809206	220	5	1.1	0.9	1.0000	-0.0000	0.0000	0.0000;
	163	1	147.76	32.73	0	8.34	0	1.07922113	-8.55731878	220	5	1.1	0.9	1.0163	0.0044	0.0000	0.0000;
	171	1	100.8	13.2	0	5.24	0	1.08936427	-9.62357336	220	5	1.1	0.9	1.0160	0.0012	0.0000	0.0000;
	174	1	370.5	-17	0	9.91	0	1.09115765	-16.358394	220	5	1.1	0.9	1.0420	-0.0222	0.0000	0.0000;
	184	1	-0	-0	0	2.42	0	1.0642808	-10.1531189	220	5	1.1	0.9	1.0210	0.0031	0.0000	0.0000;
	188	1	36.84	13.9	0	3.3	0	1.05730039	-9.72303984	220	5	1.1	0.9	1.0220	0.0050	0.0000	0.0000;
	195	1	73.14	21.55	0	8.52	0	1.08525232	-3.29258093	220	5	1.1	0.9	1.0014	0.0001	0.0000	0.0000;
	196	1	0	-0	0	12.48	0	1.09931862	-20.4554332	220	5	1.1	0.9	1.0276	-0.0893	0.0000	0.0000;
	198	1	39.74	11.8	0	1.44	0	1.04628609	-13.1031038	220	5	1.1	0.9	1.0383	0.0082	0.0000	0.0000;
	207	1	321.98	84.4	0	1.34	0	1.04886896	-11.8262144	220	5	1.1	0.9	1.0327	0.0063	0.0000	0.0000;
	216	1	155.6	54.7	0	2.21	0	1.08763111	-15.6666258	220	5	1.1	0.9	1.0410	0.0004	0.0000	0.0000;
	217	1	105.2	0.1	0	7.36	0	1.04421459	-6.21494762	220	5	1.1	0.9	1.0151	0.0033	0.0000	0.0000;
	218	1	69.83	15.12	0	2.23	0	1.08943466	-7.92290153	220	5	1.1	0.9	1.0145	0.0023	0.0000	0.0000;
	221	2	0	0	0	0	0	1.04083141	-1.20884997	380	5	1.1	0.9	1.0001	-0.0000	0.0000	0.0000;
	225	1	0	0	0	1.15	0	1.0671742	-12.983397	220	5	1.1	0.9	1.0278	0.0025	0.0000	0.0000;
	280	1	119.6	29.6	0	5.34	0	1.08079255	-5.52537109	220	5	1.1	0.9	1.0066	0.0004	0.0000	0.0000;
	283	1	27.33	11.9	0	1.17	0	1.05824138	-10.6194793	220	5	1.1	0.9	1.0253	0.0044	0.0000	0.0000;
	292	1	13.82	1.4	0	0.7	0	1.09663175	-7.73965319	220	5	1.1	0.9	1.0140	0.0015	0.0000	0.0000;
	305	1	103	12	0	0.63	0	1.08329159	-19.0579341	220	5	1.1	0.9	1.0489	0.0014	0.0000	0.0000;
	306	1	-0	0	0	4.76	0	1.04673876	-14.1500338	220	5	1.1	0.9	1.0286	-0.0024	0.0000	0.0000;
	314	1	163.1	46.3	0	10.6	0	1.03304681	-14.2270949	220	5	1.1	0.9	1.0400	0.0136	0.0000	0.0000;
	333	1	524.5	43	0	6.85	0	1.03465431	-26.9441762	220	5	1.1	0.9	1.1072	0.0135	0.0000	0.0000;
	338	2	0	0	0	0	0	1.09917697	-3.06168591	220	5	1.1	0.9	1.0000	-0.0000	0.0000	0.0000;
	346	1	197.5	48.3	0	0.71	0	1.08472716	-13.459067	220	5	1.1	0.9	1.0349	0.0017	0.0000	0.0000;
	350	1	110.4	26.2	0	5.62	0	1.06870822	-16.5432444	220	5	1.1	0.9	1.0404	-0.0079	0.0000	0.0000;
	352	2	0	0	0	0	0	1.02170566	1.79362966	380	5	1.1	0.9	1.0000	-0.0000	0.0000	0.0000;
	367	1	65.17	-51.5	0	4.85	0	1.09517984	-17.847008	220	5	1.1	0.9	1.0264	-0.0668	0.0000	0.0000;
	401	1	56.5	36.29	0	3.08	0	1.09462529	-5.27488118	220	5	1.1	0.9	1.0006	0.0002	0.0000	0.0000;
	408	1	129.1	7.4	0	0.04	0	1.0673034	-10.0958793	220	5	1.1	0.9	1.0217	0.0020	0.0000	0.0000;
	410	1	170.89	50.38	0	6.44	0	1.08436669	-14.443732	220	5	1.1	0.9	1.0388	0.0006	0.0000	0.0000;
	413	2	0	0	0	0	0	1.07868461	1.36999444	220	5	1.1	0.9	1.0000	-0.0000	0.0000	0.0000;
	416	1	70.68	13.5	0	6.96	0	1.09096324	-5.62793825	220	5	1.1	0.9	1.0046	0.0011	0.0000	0.0000;
	426	1	123.1	6.5	0	3.25	0	1.08070062	-9.54727213	220	5	1.1	0.9	1.0305	0.0009	0.0000	0.0000;
	432	1	-0	-0	0	68.517663	0	1.06357784	-0.056153743	380	5	1.1	0.9	0.9988	-0.0001	0.0000	0.0000;
	444	1	0	-0	0	2.45	0	1.05830704	-10.6550313	220	5	1.1	0.9	1.0248	0.0044	0.0000	0.0000;
	449	1	0	0	0	29.42	0	1.02444373	-2.58882033	380	5	1.1	0.9	1.0045	-0.0001	0.0000	0.0000;
	453	2	0	0	0	0	0	1.06627474	-1.09015467	380	5	1.1	0.9	1.0000	-0.0000	0.0000	0.0000;
	455	1	274.32	5.66	0	13.24	0	1.06808592	-17.0515047	220	5	1.1	0.9	1.0517	0.0023	0.0000	0.0000;
	490	1	20.52	4	0	2.77	0	1.05706691	-16.9031536	220	5	1.1	0.9	1.0361	-0.0004	0.0000	0.0000;
	500	1	144.4	35.5	0	7.66	0	1.08105422	-6.46319009	220	5	1.1	0.9	1.0096	0.0019	0.0000	0.0000;
	502	1	-0	0	0	1.96	0	1.08194226	-2.29074766	220	5	1.1	0.9	1.0003	0.0000	0.0000	0.0000;
	506	1	-0	0	0	0.4	0	1.07706427	-0.774498202	380	5	1.1	0.9	1.0002	0.0000	0.0000	0.0000;
	513	1	57.46	17.1	0	1.61	0	1.07702444	-3.13972917	220	5	1.1	0.9	1.0043	0.0009	0.0000	0.0000;
	516	2	0	0	0	0	0	1.08445585	-17.1168388	220	5	1.1	0.9	1.0000	0.0000	0.0000	0.0000;
	520	1	118.5	20.4	0	2.57	0	1.09558406	-8.79611525	220	5	1.1	0.9	1.0145	0.0001	0.0000	0.0000;
	549	1	0	-0	0	5.15	0	1.09996306	-3.8885842	220	5	1.1	0.9	1.0038	-0.0088	0.0000	0.0000;
	554	1	0	-0	0	1.97	0	1.06793655	-13.2287228	220	5	1.1	0.9	1.0310	0.0052	0.0000	0.0000;
	556	1	16.52	9	0	1.17	0	1.0577722	-16.7007993	220	5	1.1	0.9	1.0349	-0.0004	0.0000	0.0000;
	561	1	0	-0	0	0.32	0	1.09019101	-2.75570117	220	5	1.1	0.9	1.0050	0.0001	0.0000	0.0000;
	564	2	0	0	0	0	0	1.09409252	-28.8748864	220	5	1.1	0.9	1.0922	-0.0003	0.0000	0.0000;
	575	1	0	-0	0	0.67	0	1.06702522	-10.1650477	220	5	1.1	0.9	1.0219	0.0025	0.0000	0.0000;
	583	2	0	0	0	0	0	1.0912878	-4.51540766	220	5	1.1	0.9	1.0000	0.0003	0.0000	0.0000;
	594	1	67.57	17	0	5.75	0	1.06043294	-0.947009721	220	5	1.1	0.9	1.0130	0.0026	0.0000	0.0000;
	601	1	140.6	42.6	0	5.71	0	1.09157575	-6.69497761	220	5	1.1	0.9	1.0097	0.0019	0.0000	0.0000;
	604	1	33.24	4.4	0	24.54	0	1.02466916	-8.07412603	380	5	1.1	0.9	1.0246	-0.0001	0.0000	0.0000;
	608	1	150.9	10.4	0	4.77	0	1.09616187	-15.4103754	220	5	1.1	0.9	1.0381	-0.0011	0.0000	0.0000;
	609	1	-0	-0	0	5.67	0	1.06924186	-8.18068385	220	5	1.1	0.9	1.0188	0.0053	0.0000	0.0000;
	615	2	0	0	0	0	0	1.09555067	-4.08456426	220	5	1.1	0.9	0.9939	-0.0000	0.0000	0.0000;
	616	2	0	0	0	0	0	1.1	-5.09880616	220	5	1.1	0.9	1.0005	-0.0000	14.4996	0.0000;
	619	1	72.88	14.4	0	2.96	0	1.09471656	-16.716827	220	5	1.1	0.9	1.0389	0.0025	0.0000	0.0000;
	639	2	0	0	0	0	0	1.09623079	-19.6131068	220	5	1.1	0.9	1.0652	0.0000	0.0000	0.0000;
	641	1	45.32	18.5	0	0.74	0	1.09628223	-1.33246705	220	5	1.1	0.9	1.0049	0.0007	0.0000	0.0000;
	658	1	258.4	66.7	0	5.87	0	1.05675526	-7.65913436	220	5	1.1	0.9	1.0139	0.0073	0.0000	0.0000;
	661	1	-0	-0	0	0.6	0	1.03505874	-1.61879658	380	5	1.1	0.9	1.0023	0.0000	0.0000	0.0000;
	666	1	-5.61	-2.79	0	150.93	0	1.06024316	-3.20911006	380	5	1.1	0.9	1.0032	-0.0000	0.0000	0.0000;
	678	1	232.1	89.8	0	0.09	0	1.08730857	-2.49513714	220	5	1.1	0.9	1.0087	0.0033	0.0000	0.0000;
	682	2	0	0	0	0	0	1.08649794	-3.11646567	220	5	1.1	0.9	1.0000	-0.0005	0.0000	0.0000;
	687	1	-0	0	0	5.6	0	1.07195154	-4.89703563	220	5	1.1	0.9	1.0031	0.0006	0.0000	0.0000;
	707	1	83.99	21.2	0	5.36	0	1.08327131	-8.72406695	220	5	1.1	0.9	1.0139	0.0033	0.0000	0.0000;
	718	1	135.11	41	0	5.31	0	1.08560444	-8.83488031	220	5	1.1	0.9	1.0165	0.0022	0.0000	0.0000;
	720	1	-0	-0	0	23.554121	0	1.02680193	-17.5525201	380	5	1.1	0.9	1.0619	0.0005	0.0000	0.0000;
	726	1	400.3	189.9	0	0.53	0	1.06273322	-5.73837551	220	5	1.1	0.9	1.0056	0.0018	0.0000	0.0000;
	742	1	0	-0	0	2.83	0	1.07212355	-4.89854384	220	5	1.1	0.9	1.0031	0.0005	0.0000	0.0000;
	747	1	69.58	16	0	3.03	0	1.09843156	-20.5134267	220	5	1.1	0.9	1.0283	-0.0891	0.0000	0.0000;
	749	2	0	0	0	0	0	1.09240974	-9.28855683	220	5	1.1	0.9	1.0157	-0.0000	0.0000	0.0000;
	750	1	-0	-0	0	18.63	0	1.08934519	-15.5337178	220	5	1.1	0.9	1.0403	-0.0000	0.0000	0.0000;
	757	2	0	0	0	0	0	1.05477136	-5.35232293	380	5	1.1	0.9	1.0135	0.0008	0.0000	0.0000;
	766	1	-0	0	0	7.85	0	1.08970941	-12.8140441	220	5	1.1	0.9	1.0381	-0.0007	0.0000	0.0000;
	769	1	152.57	40	0	6.12	0	1.04007973	-9.0863115	220	5	1.1	0.9	1.0274	0.0068	0.0000	0.0000;
	772	1	343.9	141.9	0	5.55	0	1.07510746	-7.51201183	220	5	1.1	0.9	1.0149	0.0037	0.0000	0.0000;
	776	2	0	0	0	0	0	1.09014494	-5.37448582	220	5	1.1	0.9	1.0037	0.0000	0.0000	0.0000;
	778	2	0	0	0	0	0	1.09950365	-3.05659429	220	5	1.1	0.9	1.0000	-0.0000	0.0000	0.0000;
	789	1	-0	-0	0	6.63	0	1.09187621	-5.80023249	220	5	1.1	0.9	1.0042	0.0009	0.0000	0.0000;
	795	2	0	0	0	0	0	1.1	-0.850236309	220	5	1.1	0.9	1.0001	-0.0000	2.2410	0.0000;
	800	1	50.56	18	0	0.11	0	1.05782468	-10.6519728	220	5	1.1	0.9	1.0257	0.0045	0.0000	0.0000;
	803	2	0	0	0	0	0	1.1	-6.38251162	220	5	1.1	0.9	1.0000	-0.0000	1.7460	0.0000;
	804	1	-0	-0	0	7.26	0	1.1	-4.16446791	220	5	1.1	0.9	1.0015	-0.0017	24.0662	0.0000;
	805	1	124.5	29.6	0	15.4	0	1.09880599	-6.5376303	220	5	1.1	0.9	1.0077	0.0011	0.0000	0.0000;
	809	1	0	-0	0	58.088687	0	1.03617297	-1.50901477	380	5	1.1	0.9	1.0013	0.0002	0.0000	0.0000;
	819	1	0	-0	0	0.22	0	1.0879737	-2.80797914	220	5	1.1	0.9	0.9991	-0.0001	0.0000	0.0000;
	823	2	0	0	0	0	0	1.0218156	0.595281854	380	5	1.1	0.9	1.0000	-0.0000	0.0000	0.0000;
	839	1	-0	-0	0	8.17514	0	1.03435295	-2.21483517	380	5	1.1	0.9	1.0035	0.0004	0.0000	0.0000;
	851	2	0	0	0	0	0	1.09984058	-1.48588738	220	5	1.1	0.9	1.0007	0.0001	0.0000	0.0000;
	858	2	0	0	0	0	0	1.03682874	-0.956160156	380	5	1.1	0.9	1.0000	-0.0000	0.0000	0.0000;
	870	1	110	3.4	0	11.95	0	1.08901867	-15.6776602	220	5	1.1	0.9	1.0411	-0.0000	0.0000	0.0000;
	871	1	108.89	-21.76	0	3.72	0	1.08806672	-3.43423442	220	5	1.1	0.9	1.0064	0.0001	0.0000	0.0000;
	883	1	192.5	78.3	0	6.65	0	1.06507651	-6.59306994	220	5	1.1	0.9	1.0180	0.0061	0.0000	0.0000;
	891	2	0	0	0	0	0	1.08559147	-4.09192559	380	5	1.1	0.9	1.0111	0.0000	0.0000	0.0000;
	892	1	-0	-0	0	9.1	0	1.07968261	-18.6148749	220	5	1.1	0.9	1.0539	0.0084	0.0000	0.0000;
	900	1	0	0	0	0.15	0	1.0794092	-6.29798029	220	5	1.1	0.9	1.0199	0.0012	0.0000	0.0000;
	903	1	82.69	20.1	0	1.36	0	1.09839552	-20.5373771	220	5	1.1	0.9	1.0282	-0.0891	0.0000	0.0000;
	905	1	631.71	-54.16	0	7.534129	0	1.07010719	-5.18461833	380	5	1.1	0.9	1.0064	-0.0002	0.0000	0.0000;
	907	1	-0	-0	0	0.05	0	1.09233965	-3.68795413	220	5	1.1	0.9	1.0001	-0.0000	0.0000	0.0000;
	908	1	125.9	-0.5	0	0.21	0	1.09255771	-1.50921623	220	5	1.1	0.9	0.9998	-0.0000	0.0000	0.0000;
	920	1	34.44	8.5	0	1.11	0	1.08935427	-12.9722369	220	5	1.1	0.9	1.0307	0.0006	0.0000	0.0000;
	923	1	62.07	14.7	0	4.84	0	1.05632599	-16.9878893	220	5	1.1	0.9	1.0374	-0.0002	0.0000	0.0000;
	933	1	-0	0	0	22.75	0	1.07663134	-8.9143816	220	5	1.1	0.9	1.0247	0.0041	0.0000	0.0000;
	935	1	-0	0	0	9.46	0	1.09673211	-15.9991544	220	5	1.1	0.9	1.0337	0.0025	0.0000	0.0000;
	953	1	108.7	-12.15	0	37.11	0	1.05713697	-4.70263449	380	5	1.1	0.9	1.0133	0.0007	0.0000	0.0000;
	954	1	66.27	13.6	0	0.67	0	1.09421635	-11.9131847	220	5	1.1	0.9	1.0306	0.0016	0.0000	0.0000;
	960	1	-0	-0	0	108.728602	0	1.07706293	-0.774493618	380	5	1.1	0.9	1.0002	0.0000	0.0000	0.0000;
	964	1	88.5	16.5	0	146.44	0	1.05845045	-4.30322726	380	5	1.1	0.9	1.0104	0.0010	0.0000	0.0000;
	972	2	0	0	0	0	0	1.06550323	0.991576198	380	5	1.3	0.7	0.9941	-0.0000	0.0000	0.0000;
	980	1	14.71	4.6	0	7.88	0	1.09508545	-16.6122224	220	5	1.1	0.9	1.0378	0.0026	0.0000	0.0000;
	1001	2	0	0	0	0	0	1.08369079	-17.2804654	220	5	1.1	0.9	1.0455	0.0070	0.0000	0.0000;
	1002	2	0	0	0	0	0	1.08818551	-12.297268	220	5	1.1	0.9	1.0285	0.0004	0.0000	0.0000;
	1005	1	0	0	0	0.81	0	1.09560407	-5.03662812	220	5	1.1	0.9	0.9988	-0.0000	0.0000	0.0000;
	1015	1	44.55	0	0	4.78	0	1.09852282	-5.08855122	220	5	1.1	0.9	1.0020	-0.0002	0.0000	0.0000;
	1026	1	201.4	53	0	9.67	0	1.07132475	-11.894697	220	5	1.1	0.9	1.0331	0.0053	0.0000	0.0000;
	1027	1	-5.91	-2.33	0	30.393595	0	1.01160382	-11.8817976	380	5	1.1	0.9	1.0326	-0.0121	0.0000	0.0000;
	1033	1	26.33	5.3	0	4.31	0	1.0891722	-15.6046324	220	5	1.1	0.9	1.0412	-0.0002	0.0000	0.0000;
	1035	1	382.5	57.9	0	8.16	0	1.08390847	-18.9490807	220	5	1.1	0.9	1.0481	0.0013	0.0000	0.0000;
	1039	1	34.64	-0	0	0.91	0	1.08562113	-6.43086704	220	5	1.1	0.9	1.0088	0.0012	0.0000	0.0000;
	1040	1	31.94	8.8	0	3.79	0	1.09107241	-4.16906401	220	5	1.1	0.9	1.0021	0.0000	0.0000	0.0000;
	1043	2	0	0	0	0	0	1.07051513	-1.00435281	380	5	1.1	0.9	0.9999	-0.0000	0.0000	0.0000;
	1051	1	-0	0	0	3.79	0	1.0961318	-5.04154287	220	5	1.1	0.9	0.9991	-0.0000	0.0000	0.0000;
	1077	1	-0	0	0	0.1	0	1.05824296	-10.6195005	220	5	1.1	0.9	1.0253	0.0044	0.0000	0.0000;
	1078	1	-0	-0	0	4.74	0	1.09869832	-4.78765116	220	5	1.1	0.9	1.0000	-0.0000	0.0000	0.0000;
	1081	1	277.86	58.95	0	182.880644	0	1.08090595	-3.0892986	380	5	1.1	0.9	1.0060	-0.0014	0.0000	0.0000;
	1083	2	0	0	0	0	0	1.1	-4.92018096	220	5	1.1	0.9	1.0000	-0.0000	1.8734	0.0000;
	1090	1	56.06	18.7	0	4.24	0	1.02729523	-16.9266647	220	5	1.1	0.9	1.0400	0.0009	0.0000	0.0000;
	1093	2	0	0	0	0	0	1.07327717	-0.809009579	380	5	1.1	0.9	1.0001	-0.0000	0.0000	0.0000;
	1096	1	0	-0	0	0.16	0	1.08780608	-2.81876202	220	5	1.1	0.9	0.9992	-0.0000	0.0000	0.0000;
	1100	2	0	0	0	0	0	1.08915531	-3.32276603	220	5	1.1	0.9	1.0000	-0.0000	0.0000	0.0000;
	1101	1	-0	-0	0	2.05	0	1.08202206	-7.23955155	220	5	1.1	0.9	1.0133	0.0026	0.0000	0.0000;
	1102	2	0	0	0	0	0	1.07865304	1.36431243	220	5	1.1	0.9	1.0001	0.0000	0.0000	0.0000;
	1105	1	29.83	7.3	0	6.49	0	1.09925551	-20.4612795	220	5	1.1	0.9	1.0277	-0.0893	0.0000	0.0000;
	1111	1	0	0	0	1.1	0	1.06057644	-0.948920278	220	5	1.1	0.9	1.0130	0.0025	0.0000	0.0000;
	1129	1	190.47	55.03	0	6.7	0	1.02065154	-17.739026	220	5	1.1	0.9	1.0452	0.0024	0.0000	0.0000;
	1136	1	16.22	2	0	0.71	0	1.07795015	-11.152494	220	5	1.1	0.9	1.0209	0.0038	0.0000	0.0000;
	1137	1	-0	-0	0	0.05	0	1.0962716	-15.9608497	220	5	1.1	0.9	1.0345	0.0026	0.0000	0.0000;
	1146	1	32.84	-0	0	1.41	0	1.0615197	-7.21382655	220	5	1.1	0.9	1.0173	0.0057	0.0000	0.0000;
	1151	1	-0	-0	0	18.82	0	1.08770825	-12.825664	220	5	1.1	0.9	1.0306	0.0005	0.0000	0.0000;
	1153	1	12.41	3.9	0	2.23	0	1.05199935	-5.00619666	220	5	1.1	0.9	1.0044	0.0037	0.0000	0.0000;
	1156	1	65.67	24	0	9.95	0	1.05981848	-16.484814	220	5	1.1	0.9	1.0344	-0.0010	0.0000	0.0000;
	1159	1	112.4	13	0	3.99	0	1.06693641	-20.3219424	220	5	1.1	0.9	1.0660	0.0101	0.0000	0.0000;
	1172	1	-0	-0	0	2.3	0	1.09870462	-19.7244792	220	5	1.1	0.9	1.0267	-0.0843	0.0000	0.0000;
	1179	1	86.6	23.4	0	0.39	0	1.04235084	-6.4133422	220	5	1.1	0.9	1.0167	0.0037	0.0000	0.0000;
	1183	1	199.4	-19.9	0	6.68	0	1.08638593	-17.8143766	220	5	1.1	0.9	1.0497	0.0058	0.0000	0.0000;
	1187	1	67.57	21.2	0	5.71	0	1.07053177	-6.4390568	220	5	1.1	0.9	1.0105	0.0037	0.0000	0.0000;
	1188	1	30.93	6.6	0	9.09	0	1.09582032	-5.844272	220	5	1.1	0.9	1.0038	-0.0012	0.0000	0.0000;
	1194	1	129.6	13.3	0	13.98	0	1.07257718	-4.15047266	380	5	1.1	0.9	1.0094	0.0002	0.0000	0.0000;
	1198	1	0	0	0	30.637696	0	1.043017	-3.2624276	380	5	1.1	0.9	1.0097	0.0014	0.0000	0.0000;
	1201	1	114.1	23.5	0	1.08	0	1.09664372	-12.4516419	220	5	1.1	0.9	1.0254	-0.0085	0.0000	0.0000;
	1216	1	0	0	0	4.93	0	1.05454771	-8.86404754	220	5	1.1	0.9	1.0231	0.0036	0.0000	0.0000;
	1233	1	0	-0	0	1.72	0	1.05973333	-16.5078298	220	5	1.1	0.9	1.0346	-0.0010	0.0000	0.0000;
	1234	1	71.78	17.9	0	1.96	0	1.06409826	-9.60927287	220	5	1.1	0.9	1.0260	0.0033	0.0000	0.0000;
	1237	2	0	0	0	0	0	1.07668069	0.969699273	380	5	1.3	0.7	1.0000	-0.0000	0.0000	0.0000;
	1248	1	0	0	0	1.17	0	1.07938392	-8.55886084	220	5	1.1	0.9	1.0163	0.0043	0.0000	0.0000;
	1249	1	348.93	26.47	0	9.36	0	1.06857182	-5.31844324	380	5	1.1	0.9	1.0125	0.0000	0.0000	0.0000;
	1251	2	0	0	0	0	0	1.07307938	-0.86800244	380	5	1.1	0.9	1.0000	-0.0000	0.0000	0.0000;
	1262	1	-0	0	0	10.73	0	1.05983624	-16.0804667	220	5	1.1	0.9	1.0321	-0.0007	0.0000	0.0000;
	1265	1	173	-21.3	0	5.93	0	1.0879251	-32.9030704	220	5	1.1	0.9	1.1248	0.0025	0.0000	0.0000;
	1275	1	52.46	2.9	0	0.35	0	1.07514999	-12.2815392	220	5	1.1	0.9	1.0388	0.0019	0.0000	0.0000;
	1295	2	0	0	0	0	0	1.09927175	-3.08696789	220	5	1.1	0.9	1.0002	0.0000	0.0000	0.0000;
	1301	1	479	99.2	0	10.68	0	1.07361072	-14.9304365	220	5	1.1	0.9	1.0415	0.0019	0.0000	0.0000;
	1305	1	-0	-0	0	4.34	0	1.0914675	-8.41932625	220	5	1.1	0.9	1.0137	0.0001	0.0000	0.0000;
	1311	1	37.94	15.2	0	35.31	0	1.0512777	-9.35461071	380	5	1.1	0.9	1.0281	0.0003	0.0000	0.0000;
	1326	1	0	0	0	0.98	0	1.07983373	-18.6158695	220	5	1.1	0.9	1.0539	0.0084	0.0000	0.0000;
	1334	1	0	0	0	0.59	0	1.06611664	-9.36488189	220	5	1.1	0.9	1.0239	0.0030	0.0000	0.0000;
	1341	2	0	0	0	0	0	1.08138366	-7.23540172	220	5	1.1	0.9	1.0133	0.0027	0.0000	0.0000;
	1343	1	-0	-0	0	58.3	0	1.04793744	-3.6964312	380	5	1.1	0.9	1.0103	0.0010	0.0000	0.0000;
	1354	2	0	0	0	0	0	1.08173369	-2.46775464	220	5	1.1	0.9	1.0007	0.0000	0.0000	0.0000;
	1355	1	-3.29	-1.32	0	190.704588	0	1.07901411	-2.91552554	380	5	1.1	0.9	1.0052	-0.0008	0.0000	0.0000;
	1364	1	40.85	14.5	0	0.59	0	1.0751107	-8.96803376	220	5	1.1	0.9	1.0196	0.0050	0.0000	0.0000;
	1380	1	145.2	21.4	0	1.09	0	1.08131182	-14.8300148	220	5	1.1	0.9	1.0417	-0.0055	0.0000	0.0000;
	1394	1	30.93	7.6	0	4.69	0	1.09914782	-20.4499598	220	5	1.1	0.9	1.0276	-0.0892	0.0000	0.0000;
	1397	1	0	-0	0	2.14	0	1.09687752	-5.02287154	220	5	1.1	0.9	0.9986	-0.0003	0.0000	0.0000;
	1398	1	196.7	44.2	0	0.1	0	1.06901592	-10.5927719	220	5	1.1	0.9	1.0332	0.0059	0.0000	0.0000;
	1401	1	11.91	2.9	0	5.27	0	1.07839651	-8.83454465	220	5	1.1	0.9	1.0187	0.0035	0.0000	0.0000;
...
];

%% generator data
%	bus	Pg	Qg	Qmax	Qmin	Vg	mBase	status	Pmax	Pmin	Pc1	Pc2	Qc1min	Qc1max	Qc2min	Qc2max	ramp_agc	ramp_10	ramp_30	ramp_q	apf	mu_Pmax	mu_Pmin	mu_Qmax	mu_Qmin
mpc.gen = [
	124	333.330001	-139.308931	440.32	-172.59	1.07560977	100	1	1000	333.33	0	0	0	0	0	0	0	0	0	0	0	0.0000	0.0025	0.0000	0.0000;
	150	0.229342135	-5.06287127	77.09	-22.54	1.08400641	100	1	160	0	0	0	0	0	0	0	0	0	0	0	0	0.0000	0.0000	0.0000	0.0000;
	221	99.9999769	-65.2882916	183.92	-65.3	1.04083141	100	1	100	-207.18	0	0	0	0	0	0	0	0	0	0	0	0.0001	0.0000	0.0000	0.0000;
	338	4.01385392	-2.52654904	55.54	-19.16	1.09917697	100	1	120	0	0	0	0	0	0	0	0	0	0	0	0	0.0000	0.0000	0.0000	0.0000;
	352	870.56059	22.549001	926.35	-297.68	1.02170566	100	1	2000	666.67	0	0	0	0	0	0	0	0	0	0	0	0.0000	0.0000	0.0000	0.0000;
	413	38.1899779	1.21334793	124.12	-49.84	1.07868461	100	1	280	0	0	0	0	0	0	0	0	0	0	0	0	0.0000	0.0000	0.0000	0.0000;
	453	291.296703	-28.2112203	257.23	-74.4	1.06627474	100	1	540	0	0	0	0	0	0	0	0	0	0	0	0	0.0000	0.0000	0.0000	0.0000;
	516	522.917665	79.9882215	261.79	-106.67	1.08445585	100	1	600	200	0	0	0	0	0	0	0	0	0	0	0	0.0000	0.0000	0.0000	0.0000;
	564	100	-19.3499927	18.47	-19.35	1.09409252	100	1	100	-68.89	0	0	0	0	0	0	0	0	0	0	0	0.0922	0.0000	0.0000	0.0003;
	583	79.0194216	17.8799935	17.88	-7.03	1.0912878	100	1	100	-360	0	0	0	0	0	0	0	0	0	0	0	0.0000	0.0000	0.0003	0.0000;
	615	3.54806627e-07	-3.68017808	17.09	-7.79	1.09555067	100	1	40	0	0	0	0	0	0	0	0	0	0	0	0	0.0000	0.0061	0.0000	0.0000;
	616	479.999996	49.8023473	217.9	-81.16	1.1	100	1	480	160	0	0	0	0	0	0	0	0	0	0	0	0.0005	0.0000	0.0000	0.0000;
	639	100	95.0037216	135.52	-38.9	1.09623079	100	1	100	-61.6	0	0	0	0	0	0	0	0	0	0	0	0.0652	0.0000	0.0000	0.0000;
	682	44.0790126	-11.0599961	38.77	-11.06	1.08649794	100	1	80	0	0	0	0	0	0	0	0	0	0	0	0	0.0000	0.0000	0.0000	0.0005;
	749	240	-25.0760926	105.69	-43.84	1.09240974	100	1	240	0	0	0	0	0	0	0	0	0	0	0	0	0.0157	0.0000	0.0000	0.0000;
	757	120	51.2999973	51.3	-23.41	1.05477136	100	1	120	0	0	0	0	0	0	0	0	0	0	0	0	0.0135	0.0000	0.0008	0.0000;
	776	99.9999994	11.2266365	18.16	-6.73	1.09014494	100	1	100	-148.53	0	0	0	0	0	0	0	0	0	0	0	0.0037	0.0000	0.0000	0.0000;
	778	0.0132553703	-2.63961648	12.37	-9.36	1.09950365	100	1	33.58	0	0	0	0	0	0	0	0	0	0	0	0	0.0000	0.0000	0.0000	0.0000;
	795	79.999984	0.0516164281	36.75	-13.04	1.1	100	1	80	0	0	0	0	0	0	0	0	0	0	0	0	0.0001	0.0000	0.0000	0.0000;
	803	72.5018552	-3.89975991	74.03	-25.54	1.1	100	1	100	-118.93	0	0	0	0	0	0	0	0	0	0	0	0.0000	0.0000	0.0000	0.0000;
	823	881.210414	12.9363307	926.68	-298.31	1.0218156	100	1	2000	666.67	0	0	0	0	0	0	0	0	0	0	0	0.0000	0.0000	0.0000	0.0000;
	851	199.999997	96.6399754	96.64	-27.81	1.09984058	100	1	200	0	0	0	0	0	0	0	0	0	0	0	0	0.0007	0.0000	0.0001	0.0000;
	858	475.973561	77.6537988	440.67	-172.15	1.03682874	100	1	1000	333.33	0	0	0	0	0	0	0	0	0	0	0	0.0000	0.0000	0.0000	0.0000;
	891	2400	635.378152	1097.41	-373.91	1.08559147	100	1	2400	800	0	0	0	0	0	0	0	0	0	0	0	0.0111	0.0000	0.0000	0.0000;
	972	666.67	135.044591	934.73	-291.52	1.06550323	100	1	2000	666.67	0	0	0	0	0	0	0	0	0	0	0	0.0000	0.0059	0.0000	0.0000;
	1001	120	55.0199997	55.02	-19.81	1.08369079	100	1	120	0	0	0	0	0	0	0	0	0	0	0	0	0.0455	0.0000	0.0070	0.0000;
	1002	200	89.5499941	89.55	-35.15	1.08818551	100	1	200	0	0	0	0	0	0	0	0	0	0	0	0	0.0285	0.0000	0.0004	0.0000;
	1043	300.000041	0.157115055	387.88	-163.4	1.07051513	100	1	900	300	0	0	0	0	0	0	0	0	0	0	0	0.0000	0.0001	0.0000	0.0000;
	1083	81.8318535	5.77585922	54.91	-19.88	1.1	100	1	120	0	0	0	0	0	0	0	0	0	0	0	0	0.0000	0.0000	0.0000	0.0000;
	1093	1199.99998	170.320817	550.69	-185.15	1.07327717	100	1	1200	400	0	0	0	0	0	0	0	0	0	0	0	0.0001	0.0000	0.0000	0.0000;
	1100	0.0981366377	9.61130681e-06	36.8	-13.01	1.08915531	100	1	80	0	0	0	0	0	0	0	0	0	0	0	0	0.0000	0.0000	0.0000	0.0000;
	1102	99.9999588	38.0453379	38.05	-11.59	1.07865304	100	1	100	-165.54	0	0	0	0	0	0	0	0	0	0	0	0.0001	0.0000	0.0000	0.0000;
	1237	1085.83615	118.898743	906.61	-319.44	1.07668069	100	1	2000	666.67	0	0	0	0	0	0	0	0	0	0	0	0.0000	0.0000	0.0000	0.0000;
	1251	969.30545	113.292199	550.69	-185.15	1.07307938	100	1	1200	400	0	0	0	0	0	0	0	0	0	0	0	0.0000	0.0000	0.0000	0.0000;
	1295	99.9999873	33.4924769	36.92	-12.88	1.09927175	100	1	100	-165.47	0	0	0	0	0	0	0	0	0	0	0	0.0002	0.0000	0.0000	0.0000;
	1341	120	57.0299992	57.03	-17.62	1.08138366	100	1	120	0	0	0	0	0	0	0	0	0	0	0	0	0.0133	0.0000	0.0027	0.0000;
	1354	99.999997	38.0799073	38.08	-11.73	1.08173369	100	1	100	-328.67	0	0	0	0	0	0	0	0	0	0	0	0.0007	0.0000	0.0000	0.0000;
	1422	40.6504553	5.49833324	18.09	-6.79	1.09997717	100	1	100	-134.67	0	0	0	0	0	0	0	0	0	0	0	0.0000	0.0000	0.0000	0.0000;
	1436	1.45581135e-06	-12.0899872	37.72	-12.09	1.09653316	100	1	80	0	0	0	0	0	0	0	0	0	0	0	0	0.0000	0.0015	0.0000	0.0002;
	1478	42.9835631	-2.71269108	36.4	-13.44	1.08989134	100	1	80	0	0	0	0	0	0	0	0	0	0	0	0	0.0000	0.0000	0.0000	0.0000;
	1604	65.9775119	6.96914854	37.66	-12.17	1.08217107	100	1	80	0	0	0	0	0	0	0	0	0	0	0	0	0.0000	0.0000	0.0000	0.0000;
	1642	79.9999981	37.7399881	37.74	-12.11	1.03513078	100	1	80	0	0	0	0	0	0	0	0	0	0	0	0	0.0012	0.0000	0.0002	0.0000;
	1680	1709.74401	29.5736483	928.89	-296.1	1.02185519	100	1	2000	666.67	0	0	0	0	0	0	0	0	0	0	0	0.0000	0.0000	0.0000	0.0000;
	1708	1000	175.066367	439.37	-173.3	1.07337589	100	1	1000	333.33	0	0	0	0	0	0	0	0	0	0	0	0.0061	0.0000	0.0000	0.0000;
	1721	5.94242748	-2.2589984	18.52	-6.39	1.08397402	100	1	40	0	0	0	0	0	0	0	0	0	0	0	0	0.0000	0.0000	0.0000	0.0000;
	1754	41.0599998	-7.91999522	16.99	-7.92	1.05658969	100	1	41.06	0	0	0	0	0	0	0	0	0	0	0	0	0.0125	0.0000	0.0000	0.0005;
	1794	777.83274	-3.272139	926.35	-297.68	1.02007202	100	1	2000	666.67	0	0	0	0	0	0	0	0	0	0	0	0.0000	0.0000	0.0000	0.0000;
	1808	41.0161414	12.4012649	111.23	-38.16	1.08557719	100	1	100	-0.8	0	0	0	0	0	0	0	0	0	0	0	0.0000	0.0000	0.0000	0.0000;
	1851	1.45578469e-06	-8.8899878	11.76	-8.89	1.09654533	100	1	31.92	0	0	0	0	0	0	0	0	0	0	0	0	0.0000	0.0015	0.0000	0.0002;
	1852	99.999997	28.2962499	58.16	-16.52	1.09979393	100	1	100	-322.4	0	0	0	0	0	0	0	0	0	0	0	0.0007	0.0000	0.0000	0.0000;
	1888	456.778912	206.801361	396.02	-155.83	1.06905218	100	1	912.78	312.78	0	0	0	0	0	0	0	0	0	0	0	0.0000	0.0000	0.0000	0.0000;
	1914	170.210061	0.671015281	160.36	-150.95	1.09734857	100	1	472.16	39.35	0	0	0	0	0	0	0	0	0	0	0	0.0000	0.0000	0.0000	0.0000;
	1959	3.54807444e-07	-5.76490966e-06	18.14	-6.75	1.09555067	100	1	40	0	0	0	0	0	0	0	0	0	0	0	0	0.0000	0.0061	0.0000	0.0000;
	2035	586.755393	102.478734	441.85	-171.27	1.03844779	100	1	1000	333.33	0	0	0	0	0	0	0	0	0	0	0	0.0000	0.0000	0.0000	0.0000;
	2050	666.67	151.400037	962.2	-263.65	1.06896014	100	1	2000	666.67	0	0	0	0	0	0	0	0	0	0	0	0.0000	0.0046	0.0000	0.0000;
	2085	199.999999	16.0975196	88.39	-36.19	1.03531896	100	1	200	0	0	0	0	0	0	0	0	0	0	0	0	0.0019	0.0000	0.0000	0.0000;
	2177	99.9999996	-16.2599987	58.35	-16.26	1.1	100	1	100	-161.73	0	0	0	0	0	0	0	0	0	0	0	0.0060	0.0000	0.0000	0.0017;
	2197	99.9999987	-14.7399734	19.51	-14.74	1.07329583	100	1	100	-71.05	0	0	0	0	0	0	0	0	0	0	0	0.0016	0.0000	0.0000	0.0001;
	2276	0.0474424856	-0.000115334495	41.67	-36.5	1.09985461	100	1	119.3	0	0	0	0	0	0	0	0	0	0	0	0	0.0000	0.0000	0.0000	0.0000;
	2291	94.44437	-28.9299993	95.69	-28.93	1.09170241	100	1	200	0	0	0	0	0	0	0	0	0	0	0	0	0.0000	0.0000	0.0000	0.0033;
	2359	79.9999997	22.9991493	34.35	-15.5	1.07459779	100	1	80	0	0	0	0	0	0	0	0	0	0	0	0	0.0080	0.0000	0.0000	0.0000;
	2421	99.9999999	-12.4499997	37.39	-12.45	1.07461988	100	1	100	-427.2	0	0	0	0	0	0	0	0	0	0	0	0.0334	0.0000	0.0000	0.0084;
	2425	99.9999998	23.370474	54.3	-20.49	1.03379844	100	1	100	-134	0	0	0	0	0	0	0	0	0	0	0	0.0112	0.0000	0.0000	0.0000;
	2426	99.9999993	1.09413344	105.34	-99.02	1.09866918	100	1	100	-57.6	0	0	0	0	0	0	0	0	0	0	0	0.0032	0.0000	0.0000	0.0000;
	2446	666.670001	14.2257675	921.62	-304.73	1.03754219	100	1	2000	666.67	0	0	0	0	0	0	0	0	0	0	0	0.0000	0.0028	0.0000	0.0000;
	2468	4.09089295	-2.57501349	38.02	-11.81	1.09917458	100	1	80	0	0	0	0	0	0	0	0	0	0	0	0	0.0000	0.0000	0.0000	0.0000;
	2481	79.9999938	0.445469862	39.12	-10.71	1.09364779	100	1	80	0	0	0	0	0	0	0	0	0	0	0	0	0.0003	0.0000	0.0000	0.0000;
	2489	68.3536542	31.0962414	162.4	-61.79	1.08374293	100	1	360	0	0	0	0	0	0	0	0	0	0	0	0	0.0000	0.0000	0.0000	0.0000;
	2550	0.0235281617	-4.51528053	58.23	-16.49	1.09951756	100	1	120	0	0	0	0	0	0	0	0	0	0	0	0	0.0000	0.0000	0.0000	0.0000;
	2600	159.999998	0.661938512	76.08	-23.59	1.09990199	100	1	160	0	0	0	0	0	0	0	0	0	0	0	0	0.0010	0.0000	0.0000	0.0000;
	2627	666.670001	11.8712324	921.52	-304.79	1.03707031	100	1	2000	666.67	0	0	0	0	0	0	0	0	0	0	0	0.0000	0.0022	0.0000	0.0000;
	2653	120	-22.7999943	51.94	-22.8	1.05713037	100	1	120	0	0	0	0	0	0	0	0	0	0	0	0	0.0360	0.0000	0.0000	0.0004;
	2719	196.719984	0.496868109	70.15	-58.1	1.1	100	1	196.72	0	0	0	0	0	0	0	0	0	0	0	0	0.0001	0.0000	0.0000	0.0000;
	2786	666.67	129.732745	934.81	-291.47	1.06663218	100	1	2000	666.67	0	0	0	0	0	0	0	0	0	0	0	0.0000	0.0058	0.0000	0.0000;
	2797	80.8393095	21.370286	88.33	-36.33	1.08915478	100	1	100	-126.8	0	0	0	0	0	0	0	0	0	0	0	0.0000	0.0000	0.0000	0.0000;
	2799	1.78850228e-06	-6.24142743e-05	77.91	-21.66	1.09551745	100	1	160	0	0	0	0	0	0	0	0	0	0	0	0	0.0000	0.0012	0.0000	0.0000;
	2816	746.194794	7.62063142	926.26	-297.74	1.02141637	100	1	2000	666.67	0	0	0	0	0	0	0	0	0	0	0	0.0000	0.0000	0.0000	0.0000;
	2841	0.0835476135	-0.164300431	55.98	-18.76	1.09893933	100	1	120	0	0	0	0	0	0	0	0	0	0	0	0	0.0000	0.0000	0.0000	0.0000;
	2842	39.9999823	7.94101866	18.19	-6.74	1.08213052	100	1	40	0	0	0	0	0	0	0	0	0	0	0	0	0.0001	0.0000	0.0000	0.0000;
	2872	9.04999865	-2.539988	3.31	-2.54	1.08950924	100	1	9.05	0	0	0	0	0	0	0	0	0	0	0	0	0.0016	0.0000	0.0000	0.0002;
	2878	214.859996	10.6917956	72.95	-68.71	1.09224453	100	1	214.86	0	0	0	0	0	0	0	0	0	0	0	0	0.0005	0.0000	0.0000	0.0000;
	2886	1.73383571	-17.0199364	57.69	-17.02	1.08871956	100	1	120	0	0	0	0	0	0	0	0	0	0	0	0	0.0000	0.0000	0.0000	0.0000;
	2902	0.0237569368	-3.09431162	19.19	-5.72	1.09985655	100	1	40	0	0	0	0	0	0	0	0	0	0	0	0	0.0000	0.0000	0.0000	0.0000;
	2930	1.45581158e-06	-12.539987	37.24	-12.54	1.09651385	100	1	80	0	0	0	0	0	0	0	0	0	0	0	0	0.0000	0.0015	0.0000	0.0002;
	2934	0.00707549684	-3.85104499e-05	2.51	-1.91	1.09950487	100	1	6.83	0	0	0	0	0	0	0	0	0	0	0	0	0.0000	0.0000	0.0000	0.0000;
	2985	37.5437335	-4.95219798	184.46	-132.67	1.08674886	100	1	493.35	0	0	0	0	0	0	0	0	0	0	0	0	0.0000	0.0000	0.0000	0.0000;
	3018	2.28852915e-06	-8.35343277	89.61	-34.82	1.0961052	100	1	200	0	0	0	0	0	0	0	0	0	0	0	0	0.0000	0.0009	0.0000	0.0000;
	3028	541.620363	93.6753359	441.85	-171.27	1.03815011	100	1	1000	333.33	0	0	0	0	0	0	0	0	0	0	0	0.0000	0.0000	0.0000	0.0000;
	3114	24.4651513	-7.60999936	17.33	-7.61	1.09368954	100	1	40	0	0	0	0	0	0	0	0	0	0	0	0	0.0000	0.0000	0.0000	0.0034;
	3133	20.1125228	-35.5599514	113.97	-35.56	1.08500404	100	1	240	0	0	0	0	0	0	0	0	0	0	0	0	0.0000	0.0000	0.0000	0.0000;
	3134	61.8562641	24.4531443	70.25	-29.33	1.0964819	100	1	100	-181.73	0	0	0	0	0	0	0	0	0	0	0	0.0000	0.0000	0.0000	0.0000;
	3183	1.78854249e-06	-5.98204477e-06	53.7	-20.98	1.09551745	100	1	120	0	0	0	0	0	0	0	0	0	0	0	0	0.0000	0.0012	0.0000	0.0000;
	3205	283.410148	97.8974323	243.61	-88.46	1.0612614	100	1	540	0	0	0	0	0	0	0	0	0	0	0	0	0.0000	0.0000	0.0000	0.0000;
	3218	89.393851	12.125755	36.79	-13	1.09489872	100	1	100	-143.2	0	0	0	0	0	0	0	0	0	0	0	0.0000	0.0000	0.0000	0.0000;
	3240	-56.3999975	6.38899111	62.23	-51.37	1.08783349	100	1	100	-56.4	0	0	0	0	0	0	0	0	0	0	0	0.0000	0.0009	0.0000	0.0000;
	3306	333.330001	-11.5189444	439.2	-173.43	1.0718327	100	1	1000	333.33	0	0	0	0	0	0	0	0	0	0	0	0.0000	0.0025	0.0000	0.0000;
	3324	99.9999999	38.1299988	38.13	-11.64	1.08204428	100	1	100	-35.3	0	0	0	0	0	0	0	0	0	0	0	0.0144	0.0000	0.0018	0.0000;
	3346	79.9999998	37.099999	37.1	-12.76	1.04981497	100	1	80	0	0	0	0	0	0	0	0	0	0	0	0	0.0133	0.0000	0.0021	0.0000;
	3353	1.23678631e-05	-2.77775933	38.2	-11.61	1.08845012	100	1	80	0	0	0	0	0	0	0	0	0	0	0	0	0.0000	0.0002	0.0000	0.0000;
	3364	1.78849086e-06	-7.03693825e-05	47.19	-41.44	1.09551745	100	1	135.27	0	0	0	0	0	0	0	0	0	0	0	0	0.0000	0.0012	0.0000	0.0000;
	3390	120	54.5899989	54.59	-20.19	1.06749201	100	1	120	0	0	0	0	0	0	0	0	0	0	0	0	0.0215	0.0000	0.0020	0.0000;
	3422	3.54809097e-07	-9.46363369	58.19	-16.5	1.09557953	100	1	120	0	0	0	0	0	0	0	0	0	0	0	0	0.0000	0.0061	0.0000	0.0000;
	3436	1200	76.8162844	550.97	-184.89	1.08830679	100	1	1200	400	0	0	0	0	0	0	0	0	0	0	0	0.0072	0.0000	0.0000	0.0000;
	3492	89.1093202	6.06310994	53.75	-21.08	1.09967447	100	1	100	-494.4	0	0	0	0	0	0	0	0	0	0	0	0.0000	0.0000	0.0000	0.0000;
	3513	857.959685	125.551392	387.88	-163.4	1.07048696	100	1	900	300	0	0	0	0	0	0	0	0	0	0	0	0.0000	0.0000	0.0000	0.0000;
	3565	42.7508934	-10.9545874	38.83	-10.97	1.09894607	100	1	80	0	0	0	0	0	0	0	0	0	0	0	0	0.0000	0.0000	0.0000	0.0000;
	3580	522.915457	80.0026555	261.7	-107.36	1.0846942	100	1	600	0	0	0	0	0	0	0	0	0	0	0	0	0.0000	0.0000	0.0000	0.0000;
	3611	99.9999984	32.6275746	54.59	-20.12	1.09323221	100	1	100	-167.2	0	0	0	0	0	0	0	0	0	0	0	0.0014	0.0000	0.0000	0.0000;
	3656	99.9999969	-33.3199994	116.07	-33.32	1.0938517	100	1	100	-34.93	0	0	0	0	0	0	0	0	0	0	0	0.0007	0.0000	0.0000	0.0036;
	3661	333.33	-34.5845573	441.04	-172.05	1.06705775	100	1	1000	333.33	0	0	0	0	0	0	0	0	0	0	0	0.0000	0.0046	0.0000	0.0000;
	3698	99.9999999	25.988045	36.34	-13.47	1.09007372	100	1	100	-16.78	0	0	0	0	0	0	0	0	0	0	0	0.0388	0.0000	0.0000	0.0000;
	3741	586.755394	102.676133	548.57	-187.16	1.03850705	100	1	1200	400	0	0	0	0	0	0	0	0	0	0	0	0.0000	0.0000	0.0000	0.0000;
	3809	700	135.115334	313.01	-116.73	1.1	100	1	700	233.33	0	0	0	0	0	0	0	0	0	0	0	0.0325	0.0000	0.0000	0.0000;
	3825	899.99994	112.612325	388.17	-163.4	1.0730276	100	1	900	300	0	0	0	0	0	0	0	0	0	0	0	0.0000	0.0000	0.0000	0.0000;
	3869	515.638022	84.8749672	440.69	-172.14	1.03706944	100	1	1000	333.33	0	0	0	0	0	0	0	0	0	0	0	0.0000	0.0000	0.0000	0.0000;
	3876	99.9999999	34.2699986	34.27	-15.52	1.07249541	100	1	100	-33.47	0	0	0	0	0	0	0	0	0	0	0	0.0154	0.0000	0.0015	0.0000;
	3916	99.9999999	38.0199944	38.02	-11.77	1.07575285	100	1	100	-28.37	0	0	0	0	0	0	0	0	0	0	0	0.0207	0.0000	0.0004	0.0000;
	3951	-29.6375776	-6.24800012	126.16	-127.56	1.09531942	100	1	100	-36.13	0	0	0	0	0	0	0	0	0	0	0	0.0000	0.0000	0.0000	0.0000;
	3971	-2.78881318e-06	2.73088131e-05	55.67	-19.09	1.09287297	100	1	100	-179.33	0	0	0	0	0	0	0	0	0	0	0	0.0000	0.0000	0.0000	0.0000;
	4024	199.999999	16.1012823	97.07	-27.44	1.03532052	100	1	200	0	0	0	0	0	0	0	0	0	0	0	0	0.0019	0.0000	0.0000	0.0000;
	4056	56.0490717	-3.22812409	38.05	-11.77	1.09235719	100	1	100	-102.53	0	0	0	0	0	0	0	0	0	0	0	0.0000	0.0000	0.0000	0.0000;
	4084	372.272515	6.944683	264.94	-103.74	1.09287297	100	1	600	0	0	0	0	0	0	0	0	0	0	0	0	0.0000	0.0000	0.0000	0.0000;
	4118	79.9999996	1.46372234	38.37	-11.4	1.09115735	100	1	80	0	0	0	0	0	0	0	0	0	0	0	0	0.0055	0.0000	0.0000	0.0000;
	4125	79.9999999	36.8899995	36.89	-13	1.03235622	100	1	80	0	0	0	0	0	0	0	0	0	0	0	0	0.0151	0.0000	0.0045	0.0000;
	4128	119.999999	57.0299987	57.03	-17.63	1.09410873	100	1	120	0	0	0	0	0	0	0	0	0	0	0	0	0.0034	0.0000	0.0017	0.0000;
	4231	1333.33	178.011054	99999	-99999	1.06971244	100	1	4188.95	1333.33	0	0	0	0	0	0	0	0	0	0	0	0.0000	0.0026	0.0000	0.0000;
	4331	37.3764926	11.812623	36.73	-13.12	1.09490827	100	1	80	0	0	0	0	0	0	0	0	0	0	0	0	0.0000	0.0000	0.0000	0.0000;
	4395	99.9999999	38.4799898	38.48	-11.33	1.0879695	100	1	100	-172.13	0	0	0	0	0	0	0	0	0	0	0	0.0279	0.0000	0.0002	0.0000;
	4419	333.33	-46.3355533	441.04	-172.05	1.06698021	100	1	1000	333.33	0	0	0	0	0	0	0	0	0	0	0	0.0000	0.0046	0.0000	0.0000;
	4480	333.330001	-11.7467274	439.2	-173.43	1.07185945	100	1	1000	333.33	0	0	0	0	0	0	0	0	0	0	0	0.0000	0.0025	0.0000	0.0000;
	4482	42.0857408	12.1692228	38.85	-10.95	1.0810214	100	1	80	0	0	0	0	0	0	0	0	0	0	0	0	0.0000	0.0000	0.0000	0.0000;
	4506	99.9999992	37.8599993	37.86	-11.95	1.0550634	100	1	100	-229.07	0	0	0	0	0	0	0	0	0	0	0	0.0026	0.0000	0.0031	0.0000;
	4566	99.9999999	3.27115161	37.94	-11.87	1.1	100	1	100	-40.51	0	0	0	0	0	0	0	0	0	0	0	0.0186	0.0000	0.0000	0.0000;
	4624	79.9999994	35.6199923	35.62	-14.19	1.09134186	100	1	80	0	0	0	0	0	0	0	0	0	0	0	0	0.0035	0.0000	0.0003	0.0000;
	4661	74.1900859	-5.76999754	19.14	-5.77	1.1	100	1	100	-105.2	0	0	0	0	0	0	0	0	0	0	0	0.0000	0.0000	0.0000	0.0008;
	4701	0.207782875	-3.57641623e-06	98.4	-86.29	1.07986524	100	1	281.85	0	0	0	0	0	0	0	0	0	0	0	0	0.0000	0.0000	0.0000	0.0000;
	4783	333.330001	-10.8843018	439.2	-173.43	1.07182691	100	1	1000	333.33	0	0	0	0	0	0	0	0	0	0	0	0.0000	0.0025	0.0000	0.0000;
	4816	99.9999998	38.3699992	38.37	-11.44	1.08774401	100	1	100	-34.77	0	0	0	0	0	0	0	0	0	0	0	0.0089	0.0000	0.0027	0.0000;
	4819	562.514204	93.1347917	440.69	-172.14	1.03723061	100	1	1000	333.33	0	0	0	0	0	0	0	0	0	0	0	0.0000	0.0000	0.0000	0.0000;
	4823	10.4599974	-2.06999709	4.44	-2.07	1.09729847	100	1	10.46	0	0	0	0	0	0	0	0	0	0	0	0	0.0008	0.0000	0.0000	0.0007;
	4850	46.6461656	-2.79593823	76.52	-23.19	1.08946988	100	1	160	0	0	0	0	0	0	0	0	0	0	0	0	0.0000	0.0000	0.0000	0.0000;
	4880	5.80058579	-0.441922195	75.62	-23.96	1.09999998	100	1	100	-53.73	0	0	0	0	0	0	0	0	0	0	0	0.0000	0.0000	0.0000	0.0000;
	4918	79.9999999	37.2699976	37.27	-12.57	1.06862132	100	1	80	0	0	0	0	0	0	0	0	0	0	0	0	0.0166	0.0000	0.0009	0.0000;
	4952	70.2031921	6.99346696	37.23	-12.61	1.09326312	100	1	100	-16.77	0	0	0	0	0	0	0	0	0	0	0	0.0000	0.0000	0.0000	0.0000;
	5004	218.759476	-17.7728668	74.73	-70.41	1.0985117	100	1	220.12	0	0	0	0	0	0	0	0	0	0	0	0	0.0000	0.0000	0.0000	0.0000;
	5019	1.45581177e-06	-12.0899869	37.72	-12.09	1.09653437	100	1	80	0	0	0	0	0	0	0	0	0	0	0	0	0.0000	0.0015	0.0000	0.0002;
	5051	7.88786042e-06	-0.955283991	74.55	-24.97	1.0956813	100	1	160	0	0	0	0	0	0	0	0	0	0	0	0	0.0000	0.0003	0.0000	0.0000;
	5067	599.999999	60.6183635	258.91	-109.58	1.02507429	100	1	600	0	0	0	0	0	0	0	0	0	0	0	0	0.0025	0.0000	0.0000	0.0000;
	5110	99.9999984	38.279988	38.28	-11.5	1.09482971	100	1	100	-70.01	0	0	0	0	0	0	0	0	0	0	0	0.0013	0.0000	0.0002	0.0000;
	5120	0.0539381226	-7.33365556e-05	56.35	-18.42	1.09985432	100	1	120	0	0	0	0	0	0	0	0	0	0	0	0	0.0000	0.0000	0.0000	0.0000;
	5144	1216.59749	119.097174	882.86	-343.24	1.07332994	100	1	2000	666.67	0	0	0	0	0	0	0	0	0	0	0	0.0000	0.0000	0.0000	0.0000;
	5237	64.0552532	-24.7399969	75.02	-24.74	1.08998686	100	1	160	0	0	0	0	0	0	0	0	0	0	0	0	0.0000	0.0000	0.0000	0.0007;
	5278	120	24.276028	51.3	-23.49	1.09019574	100	1	120	0	0	0	0	0	0	0	0	0	0	0	0	0.0386	0.0000	0.0000	0.0000;
	5340	99.9999996	36.3699822	36.37	-13.43	1.08989823	100	1	100	-212	0	0	0	0	0	0	0	0	0	0	0	0.0050	0.0000	0.0001	0.0000;
	5365	3.54801123e-07	-6.7499939	18.14	-6.75	1.09686801	100	1	40	0	0	0	0	0	0	0	0	0	0	0	0	0.0000	0.0061	0.0000	0.0004;
	5379	1085.83615	119.722162	926.47	-297.63	1.07676933	100	1	2000	666.67	0	0	0	0	0	0	0	0	0	0	0	0.0000	0.0000	0.0000	0.0000;
	5395	99.9999998	0.108096692	58.06	-16.66	1.0969031	100	1	100	-527.73	0	0	0	0	0	0	0	0	0	0	0	0.0125	0.0000	0.0000	0.0000;
	5461	79.9999997	38.2599975	38.26	-11.55	1.07800368	100	1	80	0	0	0	0	0	0	0	0	0	0	0	0	0.0064	0.0000	0.0009	0.0000;
	5481	885.478777	21.9586905	920.31	-305.64	1.07718657	100	1	2000	666.67	0	0	0	0	0	0	0	0	0	0	0	0.0000	0.0000	0.0000	0.0000;
	5482	41.4943214	-48.119988	101.32	-48.12	1.09997132	100	1	249.06	0	0	0	0	0	0	0	0	0	0	0	0	0.0000	0.0000	0.0000	0.0002;
	5486	333.33	-34.6240105	441.04	-172.05	1.06707073	100	1	1000	333.33	0	0	0	0	0	0	0	0	0	0	0	0.0000	0.0046	0.0000	0.0000;
	5488	99.9999999	37.4899996	37.49	-12.33	1.08170824	100	1	100	-128.53	0	0	0	0	0	0	0	0	0	0	0	0.0239	0.0000	0.0049	0.0000;
	5490	3399.40449	56.8239925	1765.36	-686.67	1.07937311	100	1	4000	1333.33	0	0	0	0	0	0	0	0	0	0	0	0.0000	0.0000	0.0000	0.0000;
	5533	199.999999	8.13534029	88.87	-35.71	1.0995445	100	1	200	0	0	0	0	0	0	0	0	0	0	0	0	0.0016	0.0000	0.0000	0.0000;
	5546	0.0309133765	-0.000130144176	19.16	-5.75	1.09985508	100	1	40	0	0	0	0	0	0	0	0	0	0	0	0	0.0000	0.0000	0.0000	0.0000;
	5564	79.9999997	22.3677709	36.8	-12.99	1.0978405	100	1	80	0	0	0	0	0	0	0	0	0	0	0	0	0.0067	0.0000	0.0000	0.0000;
	5658	240	103.179996	103.18	-46.25	1.05462645	100	1	240	0	0	0	0	0	0	0	0	0	0	0	0	0.0300	0.0000	0.0005	0.0000;
	5664	2.45898347	0.768929781	72.71	-27.05	1.08253566	100	1	160	0	0	0	0	0	0	0	0	0	0	0	0	0.0000	0.0000	0.0000	0.0000;
	5709	969.305431	113.12678	550.69	-185.15	1.07305828	100	1	1200	400	0	0	0	0	0	0	0	0	0	0	0	0.0000	0.0000	0.0000	0.0000;
	5781	1745.30011	71.6400376	779.29	-324.79	1.0698971	100	1	1800	600	0	0	0	0	0	0	0	0	0	0	0	0.0000	0.0000	0.0000	0.0000;
	5814	440	112.684251	196.98	-77.17	1.08363847	100	1	440	146.67	0	0	0	0	0	0	0	0	0	0	0	0.0066	0.0000	0.0000	0.0000;
	5856	480	87.2529014	214.13	-85	1.09406101	100	1	480	160	0	0	0	0	0	0	0	0	0	0	0	0.0046	0.0000	0.0000	0.0000;
	5881	48.0234903	-5.98490108	36.72	-13.13	1.0900054	100	1	80	0	0	0	0	0	0	0	0	0	0	0	0	0.0000	0.0000	0.0000	0.0000;
	5940	99.9999997	17.2099982	17.21	-7.73	1.09462848	100	1	100	-99.87	0	0	0	0	0	0	0	0	0	0	0	0.0076	0.0000	0.0012	0.0000;
	5971	666.67	117.899815	934.54	-291.64	1.06430848	100	1	2000	666.67	0	0	0	0	0	0	0	0	0	0	0	0.0000	0.0064	0.0000	0.0000;
	5983	99.999999	-12.5899942	37.27	-12.59	1.08170258	100	1	100	-136.67	0	0	0	0	0	0	0	0	0	0	0	0.0021	0.0000	0.0000	0.0004;
	5994	58.9038197	11.1099232	60.51	-61.08	1.1	100	1	100	-116.4	0	0	0	0	0	0	0	0	0	0	0	0.0000	0.0000	0.0000	0.0000;
	6036	768.791105	-43.8528518	390.4	-161.16	1.06050613	100	1	900	300	0	0	0	0	0	0	0	0	0	0	0	0.0000	0.0000	0.0000	0.0000;
	6153	32.0800258	10.0054876	249.65	-261.82	1.05253771	100	1	769.94	32.08	0	0	0	0	0	0	0	0	0	0	0	0.0000	0.0001	0.0000	0.0000;
	6168	9.49365054e-07	-0.066218859	19.86	-14.93	1.09998983	100	1	53.76	0	0	0	0	0	0	0	0	0	0	0	0	0.0000	0.0023	0.0000	0.0000;
	6291	120	13.3085664	58.12	-16.6	1.08710819	100	1	120	0	0	0	0	0	0	0	0	0	0	0	0	0.0254	0.0000	0.0000	0.0000;
	6331	2.4761259e-06	2.36323592e-06	37.76	-12.05	1.08783349	100	1	80	0	0	0	0	0	0	0	0	0	0	0	0	0.0000	0.0009	0.0000	0.0000;
	6332	3.54808274e-07	-27.0899861	96.56	-27.95	1.0960799	100	1	200	0	0	0	0	0	0	0	0	0	0	0	0	0.0000	0.0061	0.0000	0.0000;
	6351	79.9999994	38.289995	38.29	-11.56	1.09817807	100	1	80	0	0	0	0	0	0	0	0	0	0	0	0	0.0033	0.0000	0.0004	0.0000;
	6368	99.9999995	51.1098633	51.11	-23.46	1.07560428	100	1	100	-193.73	0	0	0	0	0	0	0	0	0	0	0	0.0039	0.0000	0.0000	0.0000;
	6376	11.7871966	19.9535039	148.65	-50.73	1.08414623	100	1	100	-37.07	0	0	0	0	0	0	0	0	0	0	0	0.0000	0.0000	0.0000	0.0000;
	6429	200	23.6950942	88.83	-35.69	1.07347864	100	1	200	0	0	0	0	0	0	0	0	0	0	0	0	0.0297	0.0000	0.0000	0.0000;
	6474	333.330002	1.7077693	438.72	-174.15	1.09290407	100	1	1000	333.33	0	0	0	0	0	0	0	0	0	0	0	0.0000	0.0009	0.0000	0.0000;
	6516	118.447039	87.4738638	126.73	-47.83	1.09412439	100	1	280	0	0	0	0	0	0	0	0	0	0	0	0	0.0000	0.0000	0.0000	0.0000;
	6552	99.9999999	20.7998913	37.58	-12.16	1.1	100	1	100	-272.27	0	0	0	0	0	0	0	0	0	0	0	0.0252	0.0000	0.0000	0.0000;
	6734	54.1429754	4.88440031	311.52	-132.09	1.09868014	100	1	720	0	0	0	0	0	0	0	0	0	0	0	0	0.0000	0.0000	0.0000	0.0000;
	6807	26.4924879	63.3823047	77.14	-22.46	1.1	100	1	160	0	0	0	0	0	0	0	0	0	0	0	0	0.0000	0.0000	0.0000	0.0000;
	6816	49.8999406	-6.10330507	77.35	-22.26	1.09985275	100	1	160	0	0	0	0	0	0	0	0	0	0	0	0	0.0000	0.0000	0.0000	0.0000;
	6820	0.0132552109	-1.51440855e-05	11.99	-9.06	1.09950378	100	1	32.53	0	0	0	0	0	0	0	0	0	0	0	0	0.0000	0.0000	0.0000	0.0000;
	6831	99.9999988	35.6199902	35.62	-14.25	1.09612999	100	1	100	-76.67	0	0	0	0	0	0	0	0	0	0	0	0.0018	0.0000	0.0002	0.0000;
	6845	120	33.9440624	53.24	-21.47	1.09025525	100	1	120	0	0	0	0	0	0	0	0	0	0	0	0	0.0046	0.0000	0.0000	0.0000;
	6852	3.06517691	-5.81572681	18.56	-6.34	1.09566993	100	1	100	-459.87	0	0	0	0	0	0	0	0	0	0	0	0.0000	0.0000	0.0000	0.0000;
	6857	3344.79041	369.894469	1865.83	-585.95	1.05206091	100	1	4000	1333.33	0	0	0	0	0	0	0	0	0	0	0	0.0000	0.0000	0.0000	0.0000;
	6888	88.6700009	-13.7743347	189.31	-59.87	1.1	100	1	300	88.67	0	0	0	0	0	0	0	0	0	0	0	0.0000	0.0023	0.0000	0.0000;
	6947	9.58187849	88.564435	126.09	-48.29	1.08856548	100	1	280	0	0	0	0	0	0	0	0	0	0	0	0	0.0000	0.0000	0.0000	0.0000;
...
];

%% branch data
%	fbus	tbus	r	x	b	rateA	rateB	rateC	ratio	angle	status	angmin	angmax	Pf	Qf	Pt	Qt	mu_Sf	mu_St	mu_angmin	mu_angmax
mpc.branch = [
	7351	5441	0.00018	0.000781	0	0	0	0	0	0	1	-360	360	-61.6700	-16.2433	61.6765	16.2713	0.0000	0.0000	0.0000	0.0000;
	4314	7571	0.002961	0.01669	0	319	0	0	0	0	1	-360	360	-26.1300	-0.7388	26.1475	0.8377	0.0000	0.0000	0.0000	0.0000;
	5803	3916	0.00056	0.00432	0	0	0	0	0	0	1	-360	360	-0.0000	0.4050	0.0000	-0.4050	0.0000	0.0000	0.0000	0.0000;
	6757	6036	0.0002	0.00246	0	657	0	0	0	0	1	-360	360	-265.0278	30.7188	265.1543	-29.1624	0.0000	0.0000	0.0000	0.0000;
	6757	6921	0.0003	0.00377	0	1315	0	0	0	0	1	-360	360	265.0278	-23.3270	-264.8390	25.6989	0.0000	0.0000	0.0000	0.0000;
	5019	9112	0.00014	0.00057	0	0	0	0	0	0	1	-360	360	0.0000	-12.0900	0.0002	12.0907	0.0000	0.0000	0.0000	0.0000;
	2930	9112	0.00013	0.000729	0	0	0	0	0	0	1	-360	360	0.0000	-12.5400	0.0002	12.5409	0.0000	0.0000	0.0000	0.0000;
	1436	9112	0.00012	0.000581	0	0	0	0	0	0	1	-360	360	0.0000	-12.0900	0.0001	12.0907	0.0000	0.0000	0.0000	0.0000;
	1851	9112	0.00011	0.00064	0	0	0	0	0	0	1	-360	360	0.0000	-8.8900	0.0001	8.8904	0.0000	0.0000	0.0000	0.0000;
	8331	9112	0.00019	0.00056	0	0	0	0	0	0	1	-360	360	0.0000	0.0601	0.0000	-0.0601	0.0000	0.0000	0.0000	0.0000;
	6220	8791	0.00062	0.004909	0	529	0	0	0	0	1	-360	360	-231.9000	-27.1842	232.1926	29.5013	0.0000	0.0000	0.0000	0.0000;
	9203	7842	7e-05	0.00076	0	887	0	0	0	0	1	-360	360	-199.9746	22.7150	200.0000	-22.4394	0.0000	0.0000	0.0000	0.0000;
	9203	8997	0.00066	0.00622	0	1611	0	0	0	0	1	-360	360	-300.8342	42.1835	301.3794	-37.0455	0.0000	0.0000	0.0000	0.0000;
	9203	2129	0.00054	0.00752	0	0	0	0	0	0	1	-360	360	-186.4853	-115.6338	186.7180	118.8748	0.0000	0.0000	0.0000	0.0000;
	9203	29	0.00105	0.00877	0	1315	0	0	0	0	1	-360	360	190.1654	62.8684	-189.7884	-59.7192	0.0000	0.0000	0.0000	0.0000;
	118	8903	8e-05	0.00091	0	657	0	0	0	0	1	-360	360	-86.7242	28.4757	86.7300	-28.4100	0.0000	0.0000	0.0000	0.0000;
	118	4598	0.00056	0.00719	0	953	0	0	0	0	1	-360	360	-362.2669	19.0125	362.9055	-10.8128	0.0000	0.0000	0.0000	0.0000;
	2426	5533	0.000531	0.002039	0	319	0	0	0	0	1	-360	360	-183.8132	0.9903	183.9618	-0.4196	0.0000	0.0000	0.0000	0.0000;
	2426	4831	0.008659	0.03769	0	300	0	0	0	0	1	-360	360	56.8689	19.9952	-56.6082	-18.8605	0.0000	0.0000	0.0000	0.0000;
	2426	8961	0.003849	0.021099	0	0	0	0	0	0	1	-360	360	-36.0224	1.7218	36.0639	-1.4945	0.0000	0.0000	0.0000	0.0000;
	2426	8522	0.00688	0.035969	0	300	0	0	0	0	1	-360	360	2.5077	14.0122	-2.4962	-13.9518	0.0000	0.0000	0.0000	0.0000;
	2426	6888	0.006729	0.03713	0	0	0	0	0	0	1	-360	360	-34.0656	2.4187	34.1306	-2.0599	0.0000	0.0000	0.0000	0.0000;
	2426	3401	0.00111	0.006651	0	414	0	0	0	0	1	-360	360	16.6097	13.2531	-16.6056	-13.2282	0.0000	0.0000	0.0000	0.0000;
	2426	641	0.0023	0.008909	0	0	0	0	0	0	1	-360	360	45.3652	17.7859	-45.3200	-17.6106	0.0000	0.0000	0.0000	0.0000;
	2426	2600	0.000841	0.00313	0	0	0	0	0	0	1	-360	360	-159.8220	0.0004	160.0000	0.6619	0.0000	0.0000	0.0000	0.0000;
	2426	5351	0.003521	0.017479	0	300	0	0	0	0	1	-360	360	6.3028	4.9479	-6.3009	-4.9386	0.0000	0.0000	0.0000	0.0000;
	3051	718	3.9e-05	0.00025	0	510	0	0	0	0	1	-360	360	0.0000	0.0000	0.0000	0.0000	0.0000	0.0000	0.0000	0.0000;
	3036	2327	0.000159	0.000729	0	357	0	0	0	0	1	-360	360	-116.9300	-29.5852	116.9493	29.6737	0.0000	0.0000	0.0000	0.0000;
	8651	7473	0.005281	0.032099	0	395	0	0	0	0	1	-360	360	-77.6397	-19.6642	77.9266	21.4082	0.0000	0.0000	0.0000	0.0000;
	8651	7473	0.005651	0.029419	0	376	0	0	0	0	1	-360	360	-84.8503	-19.0941	85.2123	20.9789	0.0000	0.0000	0.0000	0.0000;
	903	3654	0.000271	0.00036	0	0	0	0	0	0	1	-360	360	-82.6900	-18.4592	82.7061	18.4806	0.0000	0.0000	0.0000	0.0000;
	8732	7050	0.00044	0.00143	0	472	0	0	0	0	1	-360	360	112.5290	-18.6111	-112.4802	18.7697	0.0000	0.0000	0.0000	0.0000;
	8732	3912	0.000159	0.00074	0	453	0	0	0	0	1	-360	360	-178.7990	14.4932	178.8426	-14.2902	0.0000	0.0000	0.0000	0.0000;
	2273	1973	0.00019	0.000591	0	338	0	0	0	0	1	-360	360	-141.3000	-23.5975	141.3323	23.6979	0.0000	0.0000	0.0000	0.0000;
	5131	2928	0.00019	0.00087	0	0	0	0	0	0	1	-360	360	0.0000	9.4715	0.0001	-9.4708	0.0000	0.0000	0.0000	0.0000;
	6629	4918	0.002591	0.013659	0	319	0	0	0	0	1	-360	360	-55.8922	-9.7535	55.9656	10.1404	0.0000	0.0000	0.0000	0.0000;
	6629	7309	0.00305	0.01168	0	0	0	0	0	0	1	-360	360	-6.7378	-4.2398	6.7395	4.2463	0.0000	0.0000	0.0000	0.0000;
	413	1102	0.000159	0.000599	0	433	0	0	0	0	1	-360	360	19.4055	0.5361	-19.4050	-0.5342	0.0000	0.0000	0.0000	0.0000;
	413	1102	0.000159	0.00062	0	395	0	0	0	0	1	-360	360	18.7844	0.6772	-18.7840	-0.6754	0.0000	0.0000	0.0000	0.0000;
	3248	4918	0.00101	0.004229	0	472	0	0	0	0	1	-360	360	-156.2489	-8.6677	156.4662	9.5778	0.0000	0.0000	0.0000	0.0000;
	3248	4281	0.00319	0.018651	0	453	0	0	0	0	1	-360	360	65.3190	-4.3226	-65.1989	5.0249	0.0000	0.0000	0.0000	0.0000;
	3248	7309	0.000729	0.00337	0	0	0	0	0	0	1	-360	360	6.7399	2.7460	-6.7395	-2.7445	0.0000	0.0000	0.0000	0.0000;
	1146	1187	0.002961	0.012831	0	281	0	0	0	0	1	-360	360	-129.8609	-43.7800	130.3544	45.9185	0.0000	0.0000	0.0000	0.0000;
	1146	7945	0.000591	0.00339	0	0	0	0	0	0	1	-360	360	97.0209	45.3688	-96.9607	-45.0237	0.0000	0.0000	0.0000	0.0000;
	8900	2421	0.00024	0.001219	0	0	0	0	0	0	1	-360	360	-3.1000	-1.4961	3.1000	1.4962	0.0000	0.0000	0.0000	0.0000;
	6071	2972	0.006219	0.036341	0	376	0	0	0	0	1	-360	360	53.9854	-10.9796	-53.8248	11.9179	0.0000	0.0000	0.0000	0.0000;
	6071	6031	0.001841	0.01193	0	472	0	0	0	0	1	-360	360	-217.4854	-19.2250	218.2320	24.0630	0.0000	0.0000	0.0000	0.0000;
	3293	7264	0.001409	0.01113	0	414	0	0	0	0	1	-360	360	-75.7428	-10.7796	75.8159	11.3566	0.0000	0.0000	0.0000	0.0000;
	3293	283	0.00151	0.00768	0	376	0	0	0	0	1	-360	360	132.0833	34.1635	-131.8344	-32.8974	0.0000	0.0000	0.0000	0.0000;
	3293	3069	0.00599	0.03313	0	395	0	0	0	0	1	-360	360	-64.7256	17.5181	64.9642	-16.1987	0.0000	0.0000	0.0000	0.0000;
	3293	3390	0.001771	0.010151	0	357	0	0	0	0	1	-360	360	-24.7549	-47.4102	24.7998	47.6674	0.0000	0.0000	0.0000	0.0000;
	4689	4936	0.00074	0.00311	0	0	0	0	0	0	1	-360	360	-55.1972	11.3885	55.2168	-11.3064	0.0000	0.0000	0.0000	0.0000;
	4689	4936	0.000729	0.003159	0	0	0	0	0	0	1	-360	360	-54.5028	10.8594	54.5215	-10.7783	0.0000	0.0000	0.0000	0.0000;
	3218	7809	0.005271	0.01906	0	281	0	0	0	0	1	-360	360	66.1379	12.4748	-65.9387	-11.7546	0.0000	0.0000	0.0000	0.0000;
	3218	5455	0.00906	0.053151	0	319	0	0	0	0	1	-360	360	22.8993	-0.4507	-22.8596	0.6832	0.0000	0.0000	0.0000	0.0000;
	3218	1857	0.00405	0.0153	0	0	0	0	0	0	1	-360	360	0.3567	0.1016	-0.3567	-0.1016	0.0000	0.0000	0.0000	0.0000;
	6806	5410	0.00055	0.003961	0	395	0	0	0	0	1	-360	360	55.4067	14.8030	-55.3917	-14.6946	0.0000	0.0000	0.0000	0.0000;
	6806	5410	0.00055	0.003729	0	338	0	0	0	0	1	-360	360	58.9134	15.2067	-58.8965	-15.0919	0.0000	0.0000	0.0000	0.0000;
	6806	1609	0.00107	0.007789	0	414	0	0	0	0	1	-360	360	-148.6142	-26.0943	148.8168	27.5696	0.0000	0.0000	0.0000	0.0000;
	6806	1609	0.00112	0.00775	0	472	0	0	0	0	1	-360	360	-149.3945	-25.1541	149.6084	26.6338	0.0000	0.0000	0.0000	0.0000;
	6806	1609	0.001031	0.00775	0	0	0	0	0	0	1	-360	360	-149.3349	-26.8776	149.5324	28.3620	0.0000	0.0000	0.0000	0.0000;
	6806	2438	0.00062	0.003219	0	0	0	0	0	0	1	-360	360	0.0000	-1.2622	-0.0000	1.2622	0.0000	0.0000	0.0000	0.0000;
	6806	954	0.00068	0.002659	0	414	0	0	0	0	1	-360	360	197.1835	38.9017	-196.9549	-38.0082	0.0000	0.0000	0.0000	0.0000;
	9140	502	0.00193	0.012479	0	491	0	0	0	0	1	-360	360	3.1687	-4.2965	-3.1682	4.2995	0.0000	0.0000	0.0000	0.0000;
	9140	3013	0.001159	0.007229	0	0	0	0	0	0	1	-360	360	2.2000	0.3167	-2.2000	-0.3164	0.0000	0.0000	0.0000	0.0000;
	9140	2949	0.00137	0.008729	0	395	0	0	0	0	1	-360	360	31.0647	9.7666	-31.0523	-9.6875	0.0000	0.0000	0.0000	0.0000;
	9140	2949	0.001401	0.00855	0	433	0	0	0	0	1	-360	360	31.7472	9.7466	-31.7340	-9.6660	0.0000	0.0000	0.0000	0.0000;
	9140	2949	0.001331	0.008521	0	433	0	0	0	0	1	-360	360	31.8194	10.0293	-31.8067	-9.9482	0.0000	0.0000	0.0000	0.0000;
	7070	2208	0.00031	0.00081	0	281	0	0	0	0	1	-360	360	74.9964	23.4809	-74.9800	-23.4381	0.0000	0.0000	0.0000	0.0000;
	7070	8060	0.000341	0.00119	0	281	0	0	0	0	1	-360	360	0.0006	-14.0702	-0.0000	14.0722	0.0000	0.0000	0.0000	0.0000;
	7070	4484	0.00031	0.001281	0	376	0	0	0	0	1	-360	360	-102.7196	-3.9863	102.7476	4.1020	0.0000	0.0000	0.0000	0.0000;
	7070	4239	0.00094	0.0035	0	433	0	0	0	0	1	-360	360	-115.1773	-2.9241	115.2840	3.3211	0.0000	0.0000	0.0000	0.0000;
	8535	7047	7e-05	0.000651	0	0	0	0	0	0	1	-360	360	-72.6800	-20.7940	72.6836	20.8271	0.0000	0.0000	0.0000	0.0000;
	5477	3657	0.00019	0.00124	0	491	0	0	0	0	1	-360	360	-136.6376	6.0021	136.6670	-5.8103	0.0000	0.0000	0.0000	0.0000;
	5477	2928	0.000331	0.002539	0	433	0	0	0	0	1	-360	360	136.6376	15.7954	-136.5859	-15.3983	0.0000	0.0000	0.0000	0.0000;
	3145	2918	0.0016	0.02113	0	0	0	0	0	0	1	-360	360	-1083.8625	65.1521	1102.0275	174.7390	0.0000	0.0000	0.0000	0.0000;
	7770	5317	0.000909	0.004711	0	357	0	0	0	0	1	-360	360	7.9567	51.1304	-7.9350	-51.0179	0.0000	0.0000	0.0000	0.0000;
	7770	5317	0.00088	0.004969	0	319	0	0	0	0	1	-360	360	6.8189	48.7235	-6.7999	-48.6163	0.0000	0.0000	0.0000	0.0000;
	3	8676	0.001841	0.0088	0	0	0	0	0	0	1	-360	360	-16.4074	-38.6074	16.4355	38.7414	0.0000	0.0000	0.0000	0.0000;
	3	8189	0.01013	0.04238	0	395	0	0	0	0	1	-360	360	-134.5926	-4.7708	136.1820	11.4202	0.0000	0.0000	0.0000	0.0000;
	7267	2938	0.00059	0.00802	0	723	0	0	0	0	1	-360	360	89.2663	-52.8670	-89.2047	53.7042	0.0000	0.0000	0.0000	0.0000;
	7267	2938	0.00054	0.0079	0	657	0	0	0	0	1	-360	360	90.9328	-53.2190	-90.8746	54.0695	0.0000	0.0000	0.0000	0.0000;
	7267	3918	0.00171	0.02128	0	986	0	0	0	0	1	-360	360	-236.6589	-60.6762	237.6488	72.9943	0.0000	0.0000	0.0000	0.0000;
	7267	3918	0.00174	0.02084	0	854	0	0	0	0	1	-360	360	-241.7857	-61.1886	242.8353	73.7602	0.0000	0.0000	0.0000	0.0000;
	7267	6581	0.00086	0.01433	0	1151	0	0	0	0	1	-360	360	-703.4119	33.1188	707.5477	35.7943	0.0000	0.0000	0.0000	0.0000;
	7267	6581	0.00087	0.01404	0	723	0	0	0	0	1	-360	360	-717.7888	35.1947	722.1463	35.1250	0.0000	0.0068	0.0000	0.0000;
	7267	3830	0.00126	0.01447	0	1118	0	0	0	0	1	-360	360	496.2610	14.9484	-493.2489	19.6421	0.0000	0.0000	0.0000	0.0000;
	7267	5648	0.00122	0.01509	0	1052	0	0	0	0	1	-360	360	459.7335	18.2451	-457.2289	12.7333	0.0000	0.0000	0.0000	0.0000;
	7267	5648	0.00154	0.019	0	1282	0	0	0	0	1	-360	360	365.1221	14.4161	-363.1280	10.1865	0.0000	0.0000	0.0000	0.0000;
	4918	4907	0.00474	0.03564	0	472	0	0	0	0	1	-360	360	125.8586	31.4683	-125.1600	-26.2155	0.0000	0.0000	0.0000	0.0000;
	4918	5957	0.006	0.047849	0	433	0	0	0	0	1	-360	360	210.5337	52.5078	-208.0600	-32.7801	0.0000	0.0000	0.0000	0.0000;
	4918	5233	0.008039	0.03375	0	281	0	0	0	0	1	-360	360	29.0871	37.7558	-28.9272	-37.0844	0.0000	0.0000	0.0000	0.0000;
	6854	7309	2.1e-05	0.000211	0	510	0	0	0	0	1	-360	360	0.0000	0.0000	0.0000	0.0000	0.0000	0.0000	0.0000	0.0000;
	8311	3680	0.00045	0.002341	0	0	0	0	0	0	1	-360	360	47.5869	-3.3394	-47.5784	3.3835	0.0000	0.0000	0.0000	0.0000;
	2770	8804	0.000669	0.004281	0	433	0	0	0	0	1	-360	360	-85.3900	-13.8980	85.4336	14.1770	0.0000	0.0000	0.0000	0.0000;
	9241	8804	0.00068	0.00419	0	0	0	0	0	0	1	-360	360	0.0000	0.4143	0.0000	-0.4143	0.0000	0.0000	0.0000	0.0000;
	3083	7124	0.000729	0.00431	0	510	0	0	0	0	1	-360	360	-219.4321	-47.6312	219.7406	49.4550	0.0000	0.0000	0.0000	0.0000;
	3083	7124	0.000591	0.004651	0	453	0	0	0	0	1	-360	360	-202.5862	-52.7903	202.8036	54.5012	0.0000	0.0000	0.0000	0.0000;
	3083	8873	0.00099	0.005081	0	338	0	0	0	0	1	-360	360	-145.9516	-29.0098	146.1356	29.9541	0.0000	0.0000	0.0000	0.0000;
	1566	7582	0.00212	0.013031	0	0	0	0	0	0	1	-360	360	-42.2643	10.6097	42.2999	-10.3904	0.0000	0.0000	0.0000	0.0000;
	1566	3541	0.002159	0.01275	0	0	0	0	0	0	1	-360	360	-114.6357	-3.8120	114.8875	5.2989	0.0000	0.0000	0.0000	0.0000;
	8683	3698	0.00025	0.00095	0	0	0	0	0	0	1	-360	360	22.7617	-4.1498	-22.7606	4.1541	0.0000	0.0000	0.0000	0.0000;
	8683	3698	0.000271	0.00089	0	0	0	0	0	0	1	-360	360	23.8488	-5.2977	-23.8474	5.3021	0.0000	0.0000	0.0000	0.0000;
	8683	2801	0.001961	0.012409	0	281	0	0	0	0	1	-360	360	35.4271	1.8213	-35.4064	-1.6899	0.0000	0.0000	0.0000	0.0000;
	8683	8328	0.00044	0.00207	0	472	0	0	0	0	1	-360	360	130.8193	1.8670	-130.7559	-1.5688	0.0000	0.0000	0.0000	0.0000;
	8683	8511	0.000469	0.00143	0	529	0	0	0	0	1	-360	360	297.3206	-35.7910	-296.9667	36.8702	0.0000	0.0000	0.0000	0.0000;
	8683	6570	0.001271	0.01406	0	529	0	0	0	0	1	-360	360	-350.7728	44.6694	352.1102	-29.8750	0.0000	0.0000	0.0000	0.0000;
	8683	6570	0.00124	0.013021	0	529	0	0	0	0	1	-360	360	-378.3587	50.0257	379.8786	-34.0649	0.0000	0.0000	0.0000	0.0000;
	8683	8975	0.000409	0.00239	0	0	0	0	0	0	1	-360	360	0.0006	-13.1222	-0.0000	13.1257	0.0000	0.0000	0.0000	0.0000;
	8683	216	0.00094	0.005	0	338	0	0	0	0	1	-360	360	125.6863	30.2771	-125.5541	-29.5738	0.0000	0.0000	0.0000	0.0000;
	8683	2961	0.000219	0.0007	0	529	0	0	0	0	1	-360	360	313.2607	10.8578	-313.0796	-10.2791	0.0000	0.0000	0.0000	0.0000;
	8683	6773	6e-05	0.00025	0	0	0	0	0	0	1	-360	360	0.0000	-2.5905	-0.0000	2.5905	0.0000	0.0000	0.0000	0.0000;
	8683	5278	5e-05	0.000229	0	0	0	0	0	0	1	-360	360	-119.9937	-24.2471	120.0000	24.2760	0.0000	0.0000	0.0000	0.0000;
	3768	2751	0.00019	0.000909	0	0	0	0	0	0	1	-360	360	-19.8200	-10.8404	19.8208	10.8442	0.0000	0.0000	0.0000	0.0000;
	2276	5546	0.001711	0.00782	0	0	0	0	0	0	1	-360	360	-0.0309	0.0001	0.0309	-0.0001	0.0000	0.0000	0.0000	0.0000;
	2276	6816	0.002651	0.01176	0	319	0	0	0	0	1	-360	360	0.0784	-0.0002	-0.0784	0.0002	0.0000	0.0000	0.0000	0.0000;
	7766	444	0.001409	0.010599	0	0	0	0	0	0	1	-360	360	-75.7281	-18.9842	75.8052	19.5642	0.0000	0.0000	0.0000	0.0000;
	7766	5334	0.001419	0.010219	0	0	0	0	0	0	1	-360	360	-3.1619	-4.8338	3.1623	4.8368	0.0000	0.0000	0.0000	0.0000;
	839	3918	0.00013	0.00212	0	756	0	0	0	0	1	-360	360	219.5061	38.2257	-219.4458	-37.2419	0.0000	0.0000	0.0000	0.0000;
	839	809	0.00026	0.00313	0	1282	0	0	0	0	1	-360	360	-423.6673	-22.3543	424.1047	27.6201	0.0000	0.0000	0.0000	0.0000;
	4506	2286	0.0047	0.0318	0	376	0	0	0	0	1	-360	360	160.9045	26.8653	-159.7809	-19.2630	0.0000	0.0000	0.0000	0.0000;
	4506	6802	0.00136	0.00768	0	338	0	0	0	0	1	-360	360	77.7561	28.0185	-77.6726	-27.5472	0.0000	0.0000	0.0000	0.0000;
	4506	3520	0.005669	0.027789	0	300	0	0	0	0	1	-360	360	65.3641	-33.0723	-65.0908	34.4120	0.0000	0.0000	0.0000	0.0000;
	7273	6271	0.004409	0.033091	0	281	0	0	0	0	1	-360	360	-205.3188	9.1754	206.9822	3.3092	0.0000	0.0000	0.0000	0.0000;
	7273	1435	0.01056	0.044469	0	0	0	0	0	0	1	-360	360	0.0018	-4.3178	-0.0000	4.3252	0.0000	0.0000	0.0000	0.0000;
	7273	7148	0.01963	0.07736	0	338	0	0	0	0	1	-360	360	-44.2693	-14.1426	44.6480	15.6349	0.0000	0.0000	0.0000	0.0000;
	7273	7437	0.01157	0.04694	0	357	0	0	0	0	1	-360	360	29.9864	-7.0855	-29.8883	7.4835	0.0000	0.0000	0.0000	0.0000;
	6104	871	0.000479	0.00255	0	357	0	0	0	0	1	-360	360	-93.1200	-4.7771	93.1552	4.9646	0.0000	0.0000	0.0000	0.0000;
	7580	871	0.000469	0.00236	0	0	0	0	0	0	1	-360	360	0.0000	0.2013	0.0000	-0.2013	0.0000	0.0000	0.0000	0.0000;
	1188	1539	0.01237	0.067039	0	281	0	0	0	0	1	-360	360	-2.5497	-3.1498	2.5514	3.1590	0.0000	0.0000	0.0000	0.0000;
	1188	8515	0.0132	0.056229	0	281	0	0	0	0	1	-360	360	-28.3803	7.4653	28.4750	-7.0621	0.0000	0.0000	0.0000	0.0000;
	3971	4084	0.00026	0.001711	0	0	0	0	0	0	1	-360	360	-0.0000	0.0000	0.0000	-0.0000	0.0000	0.0000	0.0000	0.0000;
	3971	4084	0.000271	0.001669	0	0	0	0	0	0	1	-360	360	-0.0000	0.0000	0.0000	-0.0000	0.0000	0.0000	0.0000	0.0000;
	6845	5340	0.000211	0.000401	0	0	0	0	0	0	1	-360	360	120.0000	33.9441	-119.9724	-33.8916	0.0000	0.0000	0.0000	0.0000;
	8294	5814	0.00105	0.005159	0	0	0	0	0	0	1	-360	360	-14.2200	-5.8541	14.2221	5.8645	0.0000	0.0000	0.0000	0.0000;
	7115	6807	0.00212	0.00931	0	319	0	0	0	0	1	-360	360	0.0666	-0.0480	-0.0666	0.0480	0.0000	0.0000	0.0000	0.0000;
	619	6791	0.000151	0.00068	0	0	0	0	0	0	1	-360	360	-72.8800	-10.8527	72.8868	10.8835	0.0000	0.0000	0.0000	0.0000;
	5418	4908	0.00019	0.00082	0	0	0	0	0	0	1	-360	360	0.0000	4.6440	0.0000	-4.6439	0.0000	0.0000	0.0000	0.0000;
	5120	6816	0.003219	0.01405	0	300	0	0	0	0	1	-360	360	0.0539	-0.0001	-0.0539	0.0001	0.0000	0.0000	0.0000	0.0000;
	6692	9158	0.007271	0.033159	0	281	0	0	0	0	1	-360	360	-42.4534	1.4479	42.5686	-0.9226	0.0000	0.0000	0.0000	0.0000;
	6692	8035	0.006659	0.03132	0	300	0	0	0	0	1	-360	360	32.1234	0.5491	-32.0631	-0.2653	0.0000	0.0000	0.0000	0.0000;
	3445	2848	0.00057	0.00668	0	1480	0	0	0	0	1	-360	360	219.1919	8.8186	-218.9254	-5.6949	0.0000	0.0000	0.0000	0.0000;
	3445	7056	0.00057	0.00758	0	1414	0	0	0	0	1	-360	360	-314.8454	-19.3467	315.3966	26.6757	0.0000	0.0000	0.0000	0.0000;
	3445	7056	0.00039	0.00607	0	821	0	0	0	0	1	-360	360	-393.1798	-28.4628	393.7687	37.6289	0.0000	0.0000	0.0000	0.0000;
	3445	1642	0.00155	0.0179	0	0	0	0	0	0	1	-360	360	-438.5773	-63.2545	441.5347	97.4077	0.0000	0.0000	0.0000	0.0000;
	3445	4594	0.00036	0.00485	0	1545	0	0	0	0	1	-360	360	-15.5872	-10.3806	15.5885	10.3971	0.0000	0.0000	0.0000	0.0000;
	6114	1692	0.000581	0.004229	0	338	0	0	0	0	1	-360	360	83.2285	25.7038	-83.1900	-25.4234	0.0000	0.0000	0.0000	0.0000;
	6114	8190	0.00056	0.00431	0	0	0	0	0	0	1	-360	360	0.0000	-0.3662	0.0000	0.3662	0.0000	0.0000	0.0000	0.0000;
	6114	5836	0.003099	0.020531	0	472	0	0	0	0	1	-360	360	159.0918	14.0275	-158.4010	-9.4510	0.0000	0.0000	0.0000	0.0000;
	6114	3191	0.00118	0.016919	0	510	0	0	0	0	1	-360	360	198.0721	30.6552	-197.6578	-24.7155	0.0000	0.0000	0.0000	0.0000;
	6114	5300	0.00188	0.01407	0	0	0	0	0	0	1	-360	360	90.3897	4.7228	-90.2551	-3.7155	0.0000	0.0000	0.0000	0.0000;
	6114	4889	0.00545	0.04082	0	357	0	0	0	0	1	-360	360	38.1344	19.2886	-38.0474	-18.6372	0.0000	0.0000	0.0000	0.0000;
	7264	444	0.00214	0.01639	0	453	0	0	0	0	1	-360	360	116.9949	27.2608	-116.7225	-25.1744	0.0000	0.0000	0.0000	0.0000;
	7264	4747	0.002479	0.01549	0	0	0	0	0	0	1	-360	360	135.3038	27.7000	-134.8867	-25.0936	0.0000	0.0000	0.0000	0.0000;
	7982	9011	0.000159	0.001229	0	472	0	0	0	0	1	-360	360	-152.2461	-4.1172	152.2791	4.3721	0.0000	0.0000	0.0000	0.0000;
	7982	6675	0.00026	0.00162	0	453	0	0	0	0	1	-360	360	185.8329	18.4905	-185.7518	-17.9852	0.0000	0.0000	0.0000	0.0000;
...